MODEL 1
REMARK VINA RESULT:      -5.5      0.000      0.000
REMARK  Name = C:\Users\Asus\OneDrive\Рабочий стол\dz3\ligands\Lig7.pdb
REMARK  5 active torsions:
REMARK  status: ('A' for Active; 'I' for Inactive)
REMARK    1  A    between atoms: _3  and  _7
REMARK    2  A    between atoms: _3  and  _19
REMARK    3  A    between atoms: _5  and  _18
REMARK    4  A    between atoms: _9  and  _20
REMARK    5  A    between atoms: _15  and  _16
REMARK                            x       y       z     vdW  Elec       q    Type
REMARK                         _______ _______ _______ _____ _____    ______ ____
ROOT
ATOM      4  C   UNL     1      43.965 -40.907   2.879  0.00  0.00    -0.009 C 
ATOM      5  C   UNL     1      43.936 -41.809   1.869  0.00  0.00    +0.131 C 
ATOM      6  C   UNL     1      45.069 -42.046   1.165  0.00  0.00    +0.129 C 
ATOM      9  C   UNL     1      46.200 -41.386   1.492  0.00  0.00    +0.044 C 
ATOM     10  N   UNL     1      46.243 -40.527   2.476  0.00  0.00    -0.321 N 
ATOM     11  H   UNL     1      47.108 -40.031   2.726  0.00  0.00    +0.151 HD
ATOM     12  C   UNL     1      47.492 -41.621   0.741  0.00  0.00    +0.064 C 
ATOM     15  C   UNL     1      45.141 -40.306   3.134  0.00  0.00    +0.075 C 
ENDROOT
BRANCH   6   7
ATOM      7  O   UNL     1      45.102 -42.949   0.139  0.00  0.00    -0.508 OA
ATOM      8  H   UNL     1      44.692 -42.581  -0.659  0.00  0.00    +0.292 HD
ENDBRANCH   6   7
BRANCH   5  13
ATOM     13  C   UNL     1      42.807 -42.501   1.536  0.00  0.00    +0.244 C 
ATOM     14  O   UNL     1      42.730 -43.624   1.094  0.00  0.00    -0.300 OA
ENDBRANCH   5  13
BRANCH   4   3
ATOM      3  C   UNL     1      42.790 -40.553   3.773  0.00  0.00    +0.189 C 
BRANCH   3   2
ATOM      1  H   UNL     1      43.768 -39.087   4.601  0.00  0.00    +0.210 HD
ATOM      2  O   UNL     1      42.914 -39.196   4.179  0.00  0.00    -0.391 OA
ENDBRANCH   3   2
ENDBRANCH   4   3
TORSDOF 4
ENDMDL
MODEL 2
REMARK VINA RESULT:      -5.3      1.579      3.137
REMARK  Name = C:\Users\Asus\OneDrive\Рабочий стол\dz3\ligands\Lig7.pdb
REMARK  5 active torsions:
REMARK  status: ('A' for Active; 'I' for Inactive)
REMARK    1  A    between atoms: _3  and  _7
REMARK    2  A    between atoms: _3  and  _19
REMARK    3  A    between atoms: _5  and  _18
REMARK    4  A    between atoms: _9  and  _20
REMARK    5  A    between atoms: _15  and  _16
REMARK                            x       y       z     vdW  Elec       q    Type
REMARK                         _______ _______ _______ _____ _____    ______ ____
ROOT
ATOM      4  C   UNL     1      43.221 -42.141   1.805  0.00  0.00    -0.009 C 
ATOM      5  C   UNL     1      43.870 -41.245   2.585  0.00  0.00    +0.131 C 
ATOM      6  C   UNL     1      45.185 -41.009   2.363  0.00  0.00    +0.129 C 
ATOM      9  C   UNL     1      45.814 -41.665   1.365  0.00  0.00    +0.044 C 
ATOM     10  N   UNL     1      45.193 -42.518   0.596  0.00  0.00    -0.321 N 
ATOM     11  H   UNL     1      45.676 -43.011  -0.168  0.00  0.00    +0.151 HD
ATOM     12  C   UNL     1      47.280 -41.431   1.073  0.00  0.00    +0.064 C 
ATOM     15  C   UNL     1      43.932 -42.739   0.831  0.00  0.00    +0.075 C 
ENDROOT
BRANCH   6   7
ATOM      7  O   UNL     1      45.891 -40.111   3.114  0.00  0.00    -0.508 OA
ATOM      8  H   UNL     1      46.086 -39.310   2.603  0.00  0.00    +0.292 HD
ENDBRANCH   6   7
BRANCH   5  13
ATOM     13  C   UNL     1      43.245 -40.557   3.586  0.00  0.00    +0.244 C 
ATOM     14  O   UNL     1      43.286 -39.368   3.805  0.00  0.00    -0.300 OA
ENDBRANCH   5  13
BRANCH   4   3
ATOM      3  C   UNL     1      41.747 -42.493   1.911  0.00  0.00    +0.189 C 
BRANCH   3   2
ATOM      1  H   UNL     1      40.704 -44.138   1.945  0.00  0.00    +0.210 HD
ATOM      2  O   UNL     1      41.590 -43.887   1.677  0.00  0.00    -0.391 OA
ENDBRANCH   3   2
ENDBRANCH   4   3
TORSDOF 4
ENDMDL
MODEL 3
REMARK VINA RESULT:      -5.2     19.353     19.870
REMARK  Name = C:\Users\Asus\OneDrive\Рабочий стол\dz3\ligands\Lig7.pdb
REMARK  5 active torsions:
REMARK  status: ('A' for Active; 'I' for Inactive)
REMARK    1  A    between atoms: _3  and  _7
REMARK    2  A    between atoms: _3  and  _19
REMARK    3  A    between atoms: _5  and  _18
REMARK    4  A    between atoms: _9  and  _20
REMARK    5  A    between atoms: _15  and  _16
REMARK                            x       y       z     vdW  Elec       q    Type
REMARK                         _______ _______ _______ _____ _____    ______ ____
ROOT
ATOM      4  C   UNL     1      34.119 -51.291 -11.522  0.00  0.00    -0.009 C 
ATOM      5  C   UNL     1      34.787 -50.292 -12.147  0.00  0.00    +0.131 C 
ATOM      6  C   UNL     1      35.964 -50.568 -12.758  0.00  0.00    +0.129 C 
ATOM      9  C   UNL     1      36.438 -51.831 -12.738  0.00  0.00    +0.044 C 
ATOM     10  N   UNL     1      35.794 -52.805 -12.153  0.00  0.00    -0.321 N 
ATOM     11  H   UNL     1      36.156 -53.768 -12.146  0.00  0.00    +0.151 HD
ATOM     12  C   UNL     1      37.744 -52.191 -13.412  0.00  0.00    +0.064 C 
ATOM     15  C   UNL     1      34.669 -52.518 -11.563  0.00  0.00    +0.075 C 
ENDROOT
BRANCH   6   7
ATOM      7  O   UNL     1      36.679 -49.602 -13.409  0.00  0.00    -0.508 OA
ATOM      8  H   UNL     1      36.718 -49.783 -14.361  0.00  0.00    +0.292 HD
ENDBRANCH   6   7
BRANCH   5  13
ATOM     13  C   UNL     1      34.312 -49.012 -12.194  0.00  0.00    +0.244 C 
ATOM     14  O   UNL     1      33.948 -48.394 -13.168  0.00  0.00    -0.300 OA
ENDBRANCH   5  13
BRANCH   4   3
ATOM      3  C   UNL     1      32.781 -51.147 -10.818  0.00  0.00    +0.189 C 
BRANCH   3   2
ATOM      1  H   UNL     1      32.024 -52.866 -11.334  0.00  0.00    +0.210 HD
ATOM      2  O   UNL     1      31.818 -51.943 -11.496  0.00  0.00    -0.391 OA
ENDBRANCH   3   2
ENDBRANCH   4   3
TORSDOF 4
ENDMDL
MODEL 4
REMARK VINA RESULT:      -5.0     19.293     19.915
REMARK  Name = C:\Users\Asus\OneDrive\Рабочий стол\dz3\ligands\Lig7.pdb
REMARK  5 active torsions:
REMARK  status: ('A' for Active; 'I' for Inactive)
REMARK    1  A    between atoms: _3  and  _7
REMARK    2  A    between atoms: _3  and  _19
REMARK    3  A    between atoms: _5  and  _18
REMARK    4  A    between atoms: _9  and  _20
REMARK    5  A    between atoms: _15  and  _16
REMARK                            x       y       z     vdW  Elec       q    Type
REMARK                         _______ _______ _______ _____ _____    ______ ____
ROOT
ATOM      4  C   UNL     1      35.196 -51.847 -11.983  0.00  0.00    -0.009 C 
ATOM      5  C   UNL     1      34.458 -50.724 -11.814  0.00  0.00    +0.131 C 
ATOM      6  C   UNL     1      34.838 -49.585 -12.442  0.00  0.00    +0.129 C 
ATOM      9  C   UNL     1      35.936 -49.599 -13.227  0.00  0.00    +0.044 C 
ATOM     10  N   UNL     1      36.644 -50.681 -13.411  0.00  0.00    -0.321 N 
ATOM     11  H   UNL     1      37.477 -50.689 -14.015  0.00  0.00    +0.151 HD
ATOM     12  C   UNL     1      36.397 -48.356 -13.955  0.00  0.00    +0.064 C 
ATOM     15  C   UNL     1      36.268 -51.763 -12.791  0.00  0.00    +0.075 C 
ENDROOT
BRANCH   6   7
ATOM      7  O   UNL     1      34.130 -48.423 -12.314  0.00  0.00    -0.508 OA
ATOM      8  H   UNL     1      33.706 -48.371 -11.443  0.00  0.00    +0.292 HD
ENDBRANCH   6   7
BRANCH   5  13
ATOM     13  C   UNL     1      33.334 -50.696 -11.040  0.00  0.00    +0.244 C 
ATOM     14  O   UNL     1      32.182 -50.647 -11.408  0.00  0.00    -0.300 OA
ENDBRANCH   5  13
BRANCH   4   3
ATOM      3  C   UNL     1      34.885 -53.201 -11.371  0.00  0.00    +0.189 C 
BRANCH   3   2
ATOM      1  H   UNL     1      34.863 -53.719 -13.248  0.00  0.00    +0.210 HD
ATOM      2  O   UNL     1      34.852 -54.176 -12.406  0.00  0.00    -0.391 OA
ENDBRANCH   3   2
ENDBRANCH   4   3
TORSDOF 4
ENDMDL
MODEL 5
REMARK VINA RESULT:      -4.9      1.918      2.882
REMARK  Name = C:\Users\Asus\OneDrive\Рабочий стол\dz3\ligands\Lig7.pdb
REMARK  5 active torsions:
REMARK  status: ('A' for Active; 'I' for Inactive)
REMARK    1  A    between atoms: _3  and  _7
REMARK    2  A    between atoms: _3  and  _19
REMARK    3  A    between atoms: _5  and  _18
REMARK    4  A    between atoms: _9  and  _20
REMARK    5  A    between atoms: _15  and  _16
REMARK                            x       y       z     vdW  Elec       q    Type
REMARK                         _______ _______ _______ _____ _____    ______ ____
ROOT
ATOM      4  C   UNL     1      44.582 -41.505   2.196  0.00  0.00    -0.009 C 
ATOM      5  C   UNL     1      43.291 -41.911   2.149  0.00  0.00    +0.131 C 
ATOM      6  C   UNL     1      42.893 -42.726   1.143  0.00  0.00    +0.129 C 
ATOM      9  C   UNL     1      43.793 -43.121   0.219  0.00  0.00    +0.044 C 
ATOM     10  N   UNL     1      45.044 -42.750   0.265  0.00  0.00    -0.321 N 
ATOM     11  H   UNL     1      45.728 -43.059  -0.439  0.00  0.00    +0.151 HD
ATOM     12  C   UNL     1      43.400 -44.037  -0.920  0.00  0.00    +0.064 C 
ATOM     15  C   UNL     1      45.405 -41.958   1.234  0.00  0.00    +0.075 C 
ENDROOT
BRANCH   6   7
ATOM      7  O   UNL     1      41.605 -43.173   1.047  0.00  0.00    -0.508 OA
ATOM      8  H   UNL     1      41.066 -42.836   1.780  0.00  0.00    +0.292 HD
ENDBRANCH   6   7
BRANCH   5  13
ATOM     13  C   UNL     1      42.371 -41.537   3.087  0.00  0.00    +0.244 C 
ATOM     14  O   UNL     1      41.842 -42.233   3.923  0.00  0.00    -0.300 OA
ENDBRANCH   5  13
BRANCH   4   3
ATOM      3  C   UNL     1      45.184 -40.616   3.270  0.00  0.00    +0.189 C 
BRANCH   3   2
ATOM      1  H   UNL     1      44.635 -38.788   3.660  0.00  0.00    +0.210 HD
ATOM      2  O   UNL     1      44.992 -39.256   2.903  0.00  0.00    -0.391 OA
ENDBRANCH   3   2
ENDBRANCH   4   3
TORSDOF 4
ENDMDL
MODEL 6
REMARK VINA RESULT:      -4.8      2.240      3.248
REMARK  Name = C:\Users\Asus\OneDrive\Рабочий стол\dz3\ligands\Lig7.pdb
REMARK  5 active torsions:
REMARK  status: ('A' for Active; 'I' for Inactive)
REMARK    1  A    between atoms: _3  and  _7
REMARK    2  A    between atoms: _3  and  _19
REMARK    3  A    between atoms: _5  and  _18
REMARK    4  A    between atoms: _9  and  _20
REMARK    5  A    between atoms: _15  and  _16
REMARK                            x       y       z     vdW  Elec       q    Type
REMARK                         _______ _______ _______ _____ _____    ______ ____
ROOT
ATOM      4  C   UNL     1      43.117 -41.870   2.389  0.00  0.00    -0.009 C 
ATOM      5  C   UNL     1      44.296 -41.981   1.732  0.00  0.00    +0.131 C 
ATOM      6  C   UNL     1      44.352 -42.724   0.600  0.00  0.00    +0.129 C 
ATOM      9  C   UNL     1      43.232 -43.326   0.150  0.00  0.00    +0.044 C 
ATOM     10  N   UNL     1      42.086 -43.210   0.766  0.00  0.00    -0.321 N 
ATOM     11  H   UNL     1      41.233 -43.666   0.416  0.00  0.00    +0.151 HD
ATOM     12  C   UNL     1      43.241 -44.160  -1.113  0.00  0.00    +0.064 C 
ATOM     15  C   UNL     1      42.055 -42.501   1.857  0.00  0.00    +0.075 C 
ENDROOT
BRANCH   6   7
ATOM      7  O   UNL     1      45.512 -42.867  -0.108  0.00  0.00    -0.508 OA
ATOM      8  H   UNL     1      46.087 -42.096   0.009  0.00  0.00    +0.292 HD
ENDBRANCH   6   7
BRANCH   5  13
ATOM     13  C   UNL     1      45.435 -41.363   2.162  0.00  0.00    +0.244 C 
ATOM     14  O   UNL     1      46.314 -40.877   1.486  0.00  0.00    -0.300 OA
ENDBRANCH   5  13
BRANCH   4   3
ATOM      3  C   UNL     1      42.889 -41.055   3.650  0.00  0.00    +0.189 C 
BRANCH   3   2
ATOM      1  H   UNL     1      41.889 -42.188   4.880  0.00  0.00    +0.210 HD
ATOM      2  O   UNL     1      42.808 -41.941   4.760  0.00  0.00    -0.391 OA
ENDBRANCH   3   2
ENDBRANCH   4   3
TORSDOF 4
ENDMDL
MODEL 7
REMARK VINA RESULT:      -4.7      6.050      6.455
REMARK  Name = C:\Users\Asus\OneDrive\Рабочий стол\dz3\ligands\Lig7.pdb
REMARK  5 active torsions:
REMARK  status: ('A' for Active; 'I' for Inactive)
REMARK    1  A    between atoms: _3  and  _7
REMARK    2  A    between atoms: _3  and  _19
REMARK    3  A    between atoms: _5  and  _18
REMARK    4  A    between atoms: _9  and  _20
REMARK    5  A    between atoms: _15  and  _16
REMARK                            x       y       z     vdW  Elec       q    Type
REMARK                         _______ _______ _______ _____ _____    ______ ____
ROOT
ATOM      4  C   UNL     1      39.953 -44.535   4.275  0.00  0.00    -0.009 C 
ATOM      5  C   UNL     1      40.407 -45.808   4.364  0.00  0.00    +0.131 C 
ATOM      6  C   UNL     1      40.630 -46.509   3.226  0.00  0.00    +0.129 C 
ATOM      9  C   UNL     1      40.403 -45.920   2.034  0.00  0.00    +0.044 C 
ATOM     10  N   UNL     1      39.982 -44.687   1.937  0.00  0.00    -0.321 N 
ATOM     11  H   UNL     1      39.817 -44.241   1.025  0.00  0.00    +0.151 HD
ATOM     12  C   UNL     1      40.643 -46.658   0.735  0.00  0.00    +0.064 C 
ATOM     15  C   UNL     1      39.765 -44.034   3.041  0.00  0.00    +0.075 C 
ENDROOT
BRANCH   6   7
ATOM      7  O   UNL     1      41.093 -47.794   3.254  0.00  0.00    -0.508 OA
ATOM      8  H   UNL     1      41.905 -47.858   3.782  0.00  0.00    +0.292 HD
ENDBRANCH   6   7
BRANCH   5  13
ATOM     13  C   UNL     1      40.661 -46.412   5.562  0.00  0.00    +0.244 C 
ATOM     14  O   UNL     1      41.734 -46.573   6.098  0.00  0.00    -0.300 OA
ENDBRANCH   5  13
BRANCH   4   3
ATOM      3  C   UNL     1      39.682 -43.615   5.453  0.00  0.00    +0.189 C 
BRANCH   3   2
ATOM      1  H   UNL     1      40.785 -42.135   6.077  0.00  0.00    +0.210 HD
ATOM      2  O   UNL     1      40.916 -43.069   5.903  0.00  0.00    -0.391 OA
ENDBRANCH   3   2
ENDBRANCH   4   3
TORSDOF 4
ENDMDL
MODEL 8
REMARK VINA RESULT:      -4.7     17.928     19.113
REMARK  Name = C:\Users\Asus\OneDrive\Рабочий стол\dz3\ligands\Lig7.pdb
REMARK  5 active torsions:
REMARK  status: ('A' for Active; 'I' for Inactive)
REMARK    1  A    between atoms: _3  and  _7
REMARK    2  A    between atoms: _3  and  _19
REMARK    3  A    between atoms: _5  and  _18
REMARK    4  A    between atoms: _9  and  _20
REMARK    5  A    between atoms: _15  and  _16
REMARK                            x       y       z     vdW  Elec       q    Type
REMARK                         _______ _______ _______ _____ _____    ______ ____
ROOT
ATOM      4  C   UNL     1      62.681 -41.410  -1.767  0.00  0.00    -0.009 C 
ATOM      5  C   UNL     1      63.410 -42.331  -1.092  0.00  0.00    +0.131 C 
ATOM      6  C   UNL     1      63.675 -42.129   0.221  0.00  0.00    +0.129 C 
ATOM      9  C   UNL     1      63.202 -41.020   0.826  0.00  0.00    +0.044 C 
ATOM     10  N   UNL     1      62.484 -40.134   0.190  0.00  0.00    -0.321 N 
ATOM     11  H   UNL     1      62.119 -39.293   0.657  0.00  0.00    +0.151 HD
ATOM     12  C   UNL     1      63.465 -40.752   2.292  0.00  0.00    +0.064 C 
ATOM     15  C   UNL     1      62.247 -40.342  -1.074  0.00  0.00    +0.075 C 
ENDROOT
BRANCH   6   7
ATOM      7  O   UNL     1      64.400 -43.026   0.954  0.00  0.00    -0.508 OA
ATOM      8  H   UNL     1      65.333 -43.016   0.689  0.00  0.00    +0.292 HD
ENDBRANCH   6   7
BRANCH   5  13
ATOM     13  C   UNL     1      63.880 -43.469  -1.684  0.00  0.00    +0.244 C 
ATOM     14  O   UNL     1      65.032 -43.771  -1.896  0.00  0.00    -0.300 OA
ENDBRANCH   5  13
BRANCH   4   3
ATOM      3  C   UNL     1      62.279 -41.507  -3.228  0.00  0.00    +0.189 C 
BRANCH   3   2
ATOM      1  H   UNL     1      60.575 -42.143  -2.532  0.00  0.00    +0.210 HD
ATOM      2  O   UNL     1      60.867 -41.660  -3.306  0.00  0.00    -0.391 OA
ENDBRANCH   3   2
ENDBRANCH   4   3
TORSDOF 4
ENDMDL
MODEL 9
REMARK VINA RESULT:      -4.6     13.223     14.670
REMARK  Name = C:\Users\Asus\OneDrive\Рабочий стол\dz3\ligands\Lig7.pdb
REMARK  5 active torsions:
REMARK  status: ('A' for Active; 'I' for Inactive)
REMARK    1  A    between atoms: _3  and  _7
REMARK    2  A    between atoms: _3  and  _19
REMARK    3  A    between atoms: _5  and  _18
REMARK    4  A    between atoms: _9  and  _20
REMARK    5  A    between atoms: _15  and  _16
REMARK                            x       y       z     vdW  Elec       q    Type
REMARK                         _______ _______ _______ _____ _____    ______ ____
ROOT
ATOM      4  C   UNL     1      35.148 -51.949   7.613  0.00  0.00    -0.009 C 
ATOM      5  C   UNL     1      35.895 -52.649   6.726  0.00  0.00    +0.131 C 
ATOM      6  C   UNL     1      36.118 -52.126   5.496  0.00  0.00    +0.129 C 
ATOM      9  C   UNL     1      35.599 -50.919   5.188  0.00  0.00    +0.044 C 
ATOM     10  N   UNL     1      34.893 -50.229   6.042  0.00  0.00    -0.321 N 
ATOM     11  H   UNL     1      34.504 -49.306   5.804  0.00  0.00    +0.151 HD
ATOM     12  C   UNL     1      35.827 -50.290   3.831  0.00  0.00    +0.064 C 
ATOM     15  C   UNL     1      34.681 -50.752   7.215  0.00  0.00    +0.075 C 
ENDROOT
BRANCH   6   7
ATOM      7  O   UNL     1      36.869 -52.783   4.562  0.00  0.00    -0.508 OA
ATOM      8  H   UNL     1      36.657 -52.473   3.667  0.00  0.00    +0.292 HD
ENDBRANCH   6   7
BRANCH   5  13
ATOM     13  C   UNL     1      36.444 -53.862   7.027  0.00  0.00    +0.244 C 
ATOM     14  O   UNL     1      37.605 -54.192   6.937  0.00  0.00    -0.300 OA
ENDBRANCH   5  13
BRANCH   4   3
ATOM      3  C   UNL     1      34.833 -52.387   9.033  0.00  0.00    +0.189 C 
BRANCH   3   2
ATOM      1  H   UNL     1      33.079 -51.713   9.546  0.00  0.00    +0.210 HD
ATOM      2  O   UNL     1      33.986 -51.416   9.635  0.00  0.00    -0.391 OA
ENDBRANCH   3   2
ENDBRANCH   4   3
TORSDOF 4
ENDMDL
