MODEL 1
REMARK VINA RESULT:      -7.0      0.000      0.000
REMARK  Name = C:\Users\Asus\OneDrive\Рабочий стол\dz3\ligands\Lig1.pdb
REMARK  15 active torsions:
REMARK  status: ('A' for Active; 'I' for Inactive)
REMARK    1  A    between atoms: _1  and  _6
REMARK    2  A    between atoms: _2  and  _3
REMARK    3  A    between atoms: _2  and  _9
REMARK    4  A    between atoms: _3  and  _4
REMARK    5  A    between atoms: _4  and  _13
REMARK    6  A    between atoms: _4  and  _14
REMARK    7  A    between atoms: _8  and  _15
REMARK    8  A    between atoms: _10  and  _12
REMARK    9  A    between atoms: _15  and  _16
REMARK   10  A    between atoms: _16  and  _17
REMARK   11  A    between atoms: _17  and  _18
REMARK   12  A    between atoms: _17  and  _19
REMARK   13  A    between atoms: _18  and  _22
REMARK   14  A    between atoms: _19  and  _20
REMARK   15  A    between atoms: _20  and  _27
REMARK                            x       y       z     vdW  Elec       q    Type
REMARK                         _______ _______ _______ _____ _____    ______ ____
ROOT
ATOM      3  C   UNL     1      45.036 -42.196   0.933  0.00  0.00    +0.142 A 
ATOM      4  C   UNL     1      45.995 -41.458   1.526  0.00  0.00    +0.080 A 
ATOM      5  N   UNL     1      45.775 -40.728   2.535  0.00  0.00    -0.256 NA
ATOM      6  C   UNL     1      44.607 -40.696   3.016  0.00  0.00    +0.117 A 
ATOM      7  C   UNL     1      43.560 -41.379   2.524  0.00  0.00    +0.005 A 
ATOM     16  C   UNL     1      47.421 -41.451   1.026  0.00  0.00    +0.069 C 
ATOM     17  C   UNL     1      43.787 -42.146   1.438  0.00  0.00    +0.016 A 
ENDROOT
BRANCH   3   1
ATOM      1  O   UNL     1      45.328 -42.975  -0.144  0.00  0.00    -0.505 OA
ATOM      2  H   UNL     1      45.645 -42.423  -0.877  0.00  0.00    +0.292 HD
ENDBRANCH   3   1
BRANCH   7   8
ATOM      8  C   UNL     1      42.205 -41.292   3.198  0.00  0.00    +0.209 C 
BRANCH   8   9
ATOM      9  O   UNL     1      42.049 -42.338   4.139  0.00  0.00    -0.282 OA
BRANCH   9  10
ATOM     10  P   UNL     1      41.010 -42.168   5.377  0.00  0.00    +0.473 P 
ATOM     11  O   UNL     1      39.581 -42.174   4.970  0.00  0.00    -0.228 OA
BRANCH  10  12
ATOM     12  O   UNL     1      41.239 -40.573   5.655  0.00  0.00    -0.303 OA
ATOM     13  H   UNL     1      40.833 -40.078   4.962  0.00  0.00    +0.222 HD
ENDBRANCH  10  12
BRANCH  10  14
ATOM     14  O   UNL     1      41.296 -42.982   6.712  0.00  0.00    -0.303 OA
ATOM     15  H   UNL     1      40.532 -42.961   7.262  0.00  0.00    +0.222 HD
ENDBRANCH  10  14
ENDBRANCH   9  10
ENDBRANCH   8   9
ENDBRANCH   7   8
BRANCH  17  18
ATOM     18  C   UNL     1      42.690 -42.956   0.777  0.00  0.00    +0.121 C 
BRANCH  18  19
ATOM     19  N   UNL     1      43.077 -44.364   0.768  0.00  0.00    -0.300 NA
ATOM     20  H   UNL     1      44.091 -44.410   0.498  0.00  0.00    +0.123 HD
BRANCH  19  21
ATOM     21  C   UNL     1      42.276 -45.210  -0.122  0.00  0.00    +0.170 C 
BRANCH  21  22
ATOM     22  C   UNL     1      42.281 -44.609  -1.527  0.00  0.00    +0.324 C 
ATOM     23  O   UNL     1      43.271 -44.491  -2.215  0.00  0.00    -0.249 OA
BRANCH  22  24
ATOM     24  O   UNL     1      41.029 -44.205  -1.884  0.00  0.00    -0.467 OA
ATOM     25  C   UNL     1      40.928 -43.071  -2.711  0.00  0.00    +0.280 C 
ENDBRANCH  22  24
ENDBRANCH  21  22
BRANCH  21  26
ATOM     26  C   UNL     1      40.870 -45.367   0.488  0.00  0.00    +0.087 C 
BRANCH  26  27
ATOM     27  C   UNL     1      40.829 -46.177   1.753  0.00  0.00    +0.061 A 
ATOM     28  N   UNL     1      40.450 -45.696   2.863  0.00  0.00    -0.241 NA
ATOM     29  C   UNL     1      40.555 -46.650   3.687  0.00  0.00    +0.196 A 
ATOM     30  N   UNL     1      40.986 -47.709   3.141  0.00  0.00    -0.351 N 
ATOM     31  H   UNL     1      41.155 -48.624   3.618  0.00  0.00    +0.166 HD
ATOM     32  C   UNL     1      41.176 -47.461   1.913  0.00  0.00    +0.107 A 
ENDBRANCH  26  27
ENDBRANCH  21  26
ENDBRANCH  19  21
ENDBRANCH  18  19
ENDBRANCH  17  18
TORSDOF 13
ENDMDL
MODEL 2
REMARK VINA RESULT:      -6.7      2.556      4.525
REMARK  Name = C:\Users\Asus\OneDrive\Рабочий стол\dz3\ligands\Lig1.pdb
REMARK  15 active torsions:
REMARK  status: ('A' for Active; 'I' for Inactive)
REMARK    1  A    between atoms: _1  and  _6
REMARK    2  A    between atoms: _2  and  _3
REMARK    3  A    between atoms: _2  and  _9
REMARK    4  A    between atoms: _3  and  _4
REMARK    5  A    between atoms: _4  and  _13
REMARK    6  A    between atoms: _4  and  _14
REMARK    7  A    between atoms: _8  and  _15
REMARK    8  A    between atoms: _10  and  _12
REMARK    9  A    between atoms: _15  and  _16
REMARK   10  A    between atoms: _16  and  _17
REMARK   11  A    between atoms: _17  and  _18
REMARK   12  A    between atoms: _17  and  _19
REMARK   13  A    between atoms: _18  and  _22
REMARK   14  A    between atoms: _19  and  _20
REMARK   15  A    between atoms: _20  and  _27
REMARK                            x       y       z     vdW  Elec       q    Type
REMARK                         _______ _______ _______ _____ _____    ______ ____
ROOT
ATOM      3  C   UNL     1      42.088 -42.047   2.581  0.00  0.00    +0.142 A 
ATOM      4  C   UNL     1      42.250 -41.205   3.619  0.00  0.00    +0.080 A 
ATOM      5  N   UNL     1      43.353 -40.641   3.882  0.00  0.00    -0.256 NA
ATOM      6  C   UNL     1      44.342 -40.870   3.131  0.00  0.00    +0.117 A 
ATOM      7  C   UNL     1      44.320 -41.687   2.065  0.00  0.00    +0.005 A 
ATOM     16  C   UNL     1      41.115 -40.865   4.557  0.00  0.00    +0.069 C 
ATOM     17  C   UNL     1      43.151 -42.302   1.791  0.00  0.00    +0.016 A 
ENDROOT
BRANCH   3   1
ATOM      1  O   UNL     1      40.878 -42.619   2.335  0.00  0.00    -0.505 OA
ATOM      2  H   UNL     1      40.570 -43.098   3.121  0.00  0.00    +0.292 HD
ENDBRANCH   3   1
BRANCH   7   8
ATOM      8  C   UNL     1      45.561 -41.865   1.213  0.00  0.00    +0.209 C 
BRANCH   8   9
ATOM      9  O   UNL     1      46.560 -40.935   1.586  0.00  0.00    -0.282 OA
BRANCH   9  10
ATOM     10  P   UNL     1      48.088 -41.135   1.070  0.00  0.00    +0.473 P 
ATOM     11  O   UNL     1      48.574 -40.044   0.187  0.00  0.00    -0.228 OA
BRANCH  10  12
ATOM     12  O   UNL     1      47.810 -42.313  -0.028  0.00  0.00    -0.303 OA
ATOM     13  H   UNL     1      46.881 -42.460  -0.094  0.00  0.00    +0.222 HD
ENDBRANCH  10  12
BRANCH  10  14
ATOM     14  O   UNL     1      49.173 -41.636   2.119  0.00  0.00    -0.303 OA
ATOM     15  H   UNL     1      48.761 -41.774   2.955  0.00  0.00    +0.222 HD
ENDBRANCH  10  14
ENDBRANCH   9  10
ENDBRANCH   8   9
ENDBRANCH   7   8
BRANCH  17  18
ATOM     18  C   UNL     1      42.995 -43.258   0.628  0.00  0.00    +0.121 C 
BRANCH  18  19
ATOM     19  N   UNL     1      41.878 -42.818  -0.204  0.00  0.00    -0.300 NA
ATOM     20  H   UNL     1      41.101 -42.529   0.440  0.00  0.00    +0.123 HD
BRANCH  19  21
ATOM     21  C   UNL     1      41.398 -43.821  -1.160  0.00  0.00    +0.170 C 
BRANCH  21  22
ATOM     22  C   UNL     1      41.295 -43.188  -2.547  0.00  0.00    +0.324 C 
ATOM     23  O   UNL     1      41.041 -42.021  -2.747  0.00  0.00    -0.249 OA
BRANCH  22  24
ATOM     24  O   UNL     1      41.503 -44.120  -3.519  0.00  0.00    -0.467 OA
ATOM     25  C   UNL     1      42.082 -43.679  -4.724  0.00  0.00    +0.280 C 
ENDBRANCH  22  24
ENDBRANCH  21  22
BRANCH  21  26
ATOM     26  C   UNL     1      40.070 -44.400  -0.634  0.00  0.00    +0.087 C 
BRANCH  26  27
ATOM     27  C   UNL     1      40.223 -45.382   0.492  0.00  0.00    +0.061 A 
ATOM     28  N   UNL     1      39.515 -45.338   1.542  0.00  0.00    -0.241 NA
ATOM     29  C   UNL     1      39.925 -46.299   2.256  0.00  0.00    +0.196 A 
ATOM     30  N   UNL     1      40.863 -46.943   1.699  0.00  0.00    -0.351 N 
ATOM     31  H   UNL     1      41.361 -47.772   2.094  0.00  0.00    +0.166 HD
ATOM     32  C   UNL     1      41.091 -46.400   0.577  0.00  0.00    +0.107 A 
ENDBRANCH  26  27
ENDBRANCH  21  26
ENDBRANCH  19  21
ENDBRANCH  18  19
ENDBRANCH  17  18
TORSDOF 13
ENDMDL
MODEL 3
REMARK VINA RESULT:      -6.4      2.741      6.091
REMARK  Name = C:\Users\Asus\OneDrive\Рабочий стол\dz3\ligands\Lig1.pdb
REMARK  15 active torsions:
REMARK  status: ('A' for Active; 'I' for Inactive)
REMARK    1  A    between atoms: _1  and  _6
REMARK    2  A    between atoms: _2  and  _3
REMARK    3  A    between atoms: _2  and  _9
REMARK    4  A    between atoms: _3  and  _4
REMARK    5  A    between atoms: _4  and  _13
REMARK    6  A    between atoms: _4  and  _14
REMARK    7  A    between atoms: _8  and  _15
REMARK    8  A    between atoms: _10  and  _12
REMARK    9  A    between atoms: _15  and  _16
REMARK   10  A    between atoms: _16  and  _17
REMARK   11  A    between atoms: _17  and  _18
REMARK   12  A    between atoms: _17  and  _19
REMARK   13  A    between atoms: _18  and  _22
REMARK   14  A    between atoms: _19  and  _20
REMARK   15  A    between atoms: _20  and  _27
REMARK                            x       y       z     vdW  Elec       q    Type
REMARK                         _______ _______ _______ _____ _____    ______ ____
ROOT
ATOM      3  C   UNL     1      41.344 -43.767   0.669  0.00  0.00    +0.142 A 
ATOM      4  C   UNL     1      42.088 -44.526  -0.159  0.00  0.00    +0.080 A 
ATOM      5  N   UNL     1      42.146 -45.787  -0.068  0.00  0.00    -0.256 NA
ATOM      6  C   UNL     1      41.470 -46.361   0.831  0.00  0.00    +0.117 A 
ATOM      7  C   UNL     1      40.690 -45.726   1.721  0.00  0.00    +0.005 A 
ATOM     16  C   UNL     1      42.914 -43.923  -1.271  0.00  0.00    +0.069 C 
ATOM     17  C   UNL     1      40.637 -44.381   1.639  0.00  0.00    +0.016 A 
ENDROOT
BRANCH   3   1
ATOM      1  O   UNL     1      41.307 -42.414   0.522  0.00  0.00    -0.505 OA
ATOM      2  H   UNL     1      41.885 -42.142  -0.209  0.00  0.00    +0.292 HD
ENDBRANCH   3   1
BRANCH   7   8
ATOM      8  C   UNL     1      39.894 -46.517   2.742  0.00  0.00    +0.209 C 
BRANCH   8   9
ATOM      9  O   UNL     1      40.757 -47.104   3.699  0.00  0.00    -0.282 OA
BRANCH   9  10
ATOM     10  P   UNL     1      40.690 -46.627   5.251  0.00  0.00    +0.473 P 
ATOM     11  O   UNL     1      42.004 -46.648   5.945  0.00  0.00    -0.228 OA
BRANCH  10  12
ATOM     12  O   UNL     1      39.995 -47.967   5.877  0.00  0.00    -0.303 OA
ATOM     13  H   UNL     1      40.495 -48.254   6.624  0.00  0.00    +0.222 HD
ENDBRANCH  10  12
BRANCH  10  14
ATOM     14  O   UNL     1      39.802 -45.357   5.606  0.00  0.00    -0.303 OA
ATOM     15  H   UNL     1      39.190 -45.582   6.285  0.00  0.00    +0.222 HD
ENDBRANCH  10  14
ENDBRANCH   9  10
ENDBRANCH   8   9
ENDBRANCH   7   8
BRANCH  17  18
ATOM     18  C   UNL     1      39.807 -43.544   2.590  0.00  0.00    +0.121 C 
BRANCH  18  19
ATOM     19  N   UNL     1      40.608 -43.229   3.771  0.00  0.00    -0.300 NA
ATOM     20  H   UNL     1      40.462 -44.004   4.465  0.00  0.00    +0.123 HD
BRANCH  19  21
ATOM     21  C   UNL     1      40.303 -41.934   4.385  0.00  0.00    +0.170 C 
BRANCH  21  22
ATOM     22  C   UNL     1      38.806 -41.855   4.681  0.00  0.00    +0.324 C 
ATOM     23  O   UNL     1      38.105 -40.909   4.405  0.00  0.00    -0.249 OA
BRANCH  22  24
ATOM     24  O   UNL     1      38.381 -42.982   5.319  0.00  0.00    -0.467 OA
ATOM     25  C   UNL     1      37.023 -43.325   5.190  0.00  0.00    +0.280 C 
ENDBRANCH  22  24
ENDBRANCH  21  22
BRANCH  21  26
ATOM     26  C   UNL     1      40.818 -40.819   3.453  0.00  0.00    +0.087 C 
BRANCH  26  27
ATOM     27  C   UNL     1      42.313 -40.767   3.312  0.00  0.00    +0.061 A 
ATOM     28  N   UNL     1      42.985 -41.703   2.787  0.00  0.00    -0.241 NA
ATOM     29  C   UNL     1      44.188 -41.318   2.849  0.00  0.00    +0.196 A 
ATOM     30  N   UNL     1      44.299 -40.180   3.393  0.00  0.00    -0.351 N 
ATOM     31  H   UNL     1      45.191 -39.659   3.556  0.00  0.00    +0.166 HD
ATOM     32  C   UNL     1      43.137 -39.787   3.707  0.00  0.00    +0.107 A 
ENDBRANCH  26  27
ENDBRANCH  21  26
ENDBRANCH  19  21
ENDBRANCH  18  19
ENDBRANCH  17  18
TORSDOF 13
ENDMDL
MODEL 4
REMARK VINA RESULT:      -6.4      1.916      2.413
REMARK  Name = C:\Users\Asus\OneDrive\Рабочий стол\dz3\ligands\Lig1.pdb
REMARK  15 active torsions:
REMARK  status: ('A' for Active; 'I' for Inactive)
REMARK    1  A    between atoms: _1  and  _6
REMARK    2  A    between atoms: _2  and  _3
REMARK    3  A    between atoms: _2  and  _9
REMARK    4  A    between atoms: _3  and  _4
REMARK    5  A    between atoms: _4  and  _13
REMARK    6  A    between atoms: _4  and  _14
REMARK    7  A    between atoms: _8  and  _15
REMARK    8  A    between atoms: _10  and  _12
REMARK    9  A    between atoms: _15  and  _16
REMARK   10  A    between atoms: _16  and  _17
REMARK   11  A    between atoms: _17  and  _18
REMARK   12  A    between atoms: _17  and  _19
REMARK   13  A    between atoms: _18  and  _22
REMARK   14  A    between atoms: _19  and  _20
REMARK   15  A    between atoms: _20  and  _27
REMARK                            x       y       z     vdW  Elec       q    Type
REMARK                         _______ _______ _______ _____ _____    ______ ____
ROOT
ATOM      3  C   UNL     1      43.480 -42.189   1.590  0.00  0.00    +0.142 A 
ATOM      4  C   UNL     1      44.611 -41.582   1.999  0.00  0.00    +0.080 A 
ATOM      5  N   UNL     1      44.686 -40.924   3.078  0.00  0.00    -0.256 NA
ATOM      6  C   UNL     1      43.659 -40.841   3.808  0.00  0.00    +0.117 A 
ATOM      7  C   UNL     1      42.470 -41.395   3.519  0.00  0.00    +0.005 A 
ATOM     16  C   UNL     1      45.888 -41.645   1.195  0.00  0.00    +0.069 C 
ATOM     17  C   UNL     1      42.381 -42.084   2.363  0.00  0.00    +0.016 A 
ENDROOT
BRANCH   3   1
ATOM      1  O   UNL     1      43.455 -42.895   0.426  0.00  0.00    -0.505 OA
ATOM      2  H   UNL     1      43.741 -42.332  -0.311  0.00  0.00    +0.292 HD
ENDBRANCH   3   1
BRANCH   7   8
ATOM      8  C   UNL     1      41.308 -41.259   4.484  0.00  0.00    +0.209 C 
BRANCH   8   9
ATOM      9  O   UNL     1      41.536 -42.028   5.651  0.00  0.00    -0.282 OA
BRANCH   9  10
ATOM     10  P   UNL     1      40.501 -43.213   6.055  0.00  0.00    +0.473 P 
ATOM     11  O   UNL     1      40.747 -43.796   7.399  0.00  0.00    -0.228 OA
BRANCH  10  12
ATOM     12  O   UNL     1      41.109 -44.391   5.098  0.00  0.00    -0.303 OA
ATOM     13  H   UNL     1      41.893 -44.074   4.680  0.00  0.00    +0.222 HD
ENDBRANCH  10  12
BRANCH  10  14
ATOM     14  O   UNL     1      38.959 -43.007   5.723  0.00  0.00    -0.303 OA
ATOM     15  H   UNL     1      38.444 -43.208   6.485  0.00  0.00    +0.222 HD
ENDBRANCH  10  14
ENDBRANCH   9  10
ENDBRANCH   8   9
ENDBRANCH   7   8
BRANCH  17  18
ATOM     18  C   UNL     1      41.095 -42.746   1.913  0.00  0.00    +0.121 C 
BRANCH  18  19
ATOM     19  N   UNL     1      41.130 -44.158   2.286  0.00  0.00    -0.300 NA
ATOM     20  H   UNL     1      42.137 -44.453   2.301  0.00  0.00    +0.123 HD
BRANCH  19  21
ATOM     21  C   UNL     1      40.355 -45.038   1.406  0.00  0.00    +0.170 C 
BRANCH  21  22
ATOM     22  C   UNL     1      40.927 -44.966  -0.010  0.00  0.00    +0.324 C 
ATOM     23  O   UNL     1      42.063 -45.261  -0.302  0.00  0.00    -0.249 OA
BRANCH  22  24
ATOM     24  O   UNL     1      39.990 -44.501  -0.884  0.00  0.00    -0.467 OA
ATOM     25  C   UNL     1      40.435 -43.653  -1.915  0.00  0.00    +0.280 C 
ENDBRANCH  22  24
ENDBRANCH  21  22
BRANCH  21  26
ATOM     26  C   UNL     1      38.869 -44.643   1.504  0.00  0.00    +0.087 C 
BRANCH  26  27
ATOM     27  C   UNL     1      38.125 -45.299   2.632  0.00  0.00    +0.061 A 
ATOM     28  N   UNL     1      38.634 -45.476   3.779  0.00  0.00    -0.241 NA
ATOM     29  C   UNL     1      37.733 -46.054   4.453  0.00  0.00    +0.196 A 
ATOM     30  N   UNL     1      36.680 -46.250   3.776  0.00  0.00    -0.351 N 
ATOM     31  H   UNL     1      35.806 -46.710   4.116  0.00  0.00    +0.166 HD
ATOM     32  C   UNL     1      36.878 -45.789   2.613  0.00  0.00    +0.107 A 
ENDBRANCH  26  27
ENDBRANCH  21  26
ENDBRANCH  19  21
ENDBRANCH  18  19
ENDBRANCH  17  18
TORSDOF 13
ENDMDL
MODEL 5
REMARK VINA RESULT:      -6.4      2.449      5.259
REMARK  Name = C:\Users\Asus\OneDrive\Рабочий стол\dz3\ligands\Lig1.pdb
REMARK  15 active torsions:
REMARK  status: ('A' for Active; 'I' for Inactive)
REMARK    1  A    between atoms: _1  and  _6
REMARK    2  A    between atoms: _2  and  _3
REMARK    3  A    between atoms: _2  and  _9
REMARK    4  A    between atoms: _3  and  _4
REMARK    5  A    between atoms: _4  and  _13
REMARK    6  A    between atoms: _4  and  _14
REMARK    7  A    between atoms: _8  and  _15
REMARK    8  A    between atoms: _10  and  _12
REMARK    9  A    between atoms: _15  and  _16
REMARK   10  A    between atoms: _16  and  _17
REMARK   11  A    between atoms: _17  and  _18
REMARK   12  A    between atoms: _17  and  _19
REMARK   13  A    between atoms: _18  and  _22
REMARK   14  A    between atoms: _19  and  _20
REMARK   15  A    between atoms: _20  and  _27
REMARK                            x       y       z     vdW  Elec       q    Type
REMARK                         _______ _______ _______ _____ _____    ______ ____
ROOT
ATOM      3  C   UNL     1      42.902 -41.925   2.140  0.00  0.00    +0.142 A 
ATOM      4  C   UNL     1      44.212 -41.609   2.113  0.00  0.00    +0.080 A 
ATOM      5  N   UNL     1      45.030 -42.138   1.306  0.00  0.00    -0.256 NA
ATOM      6  C   UNL     1      44.600 -42.993   0.482  0.00  0.00    +0.117 A 
ATOM      7  C   UNL     1      43.323 -43.401   0.402  0.00  0.00    +0.005 A 
ATOM     16  C   UNL     1      44.806 -40.585   3.053  0.00  0.00    +0.069 C 
ATOM     17  C   UNL     1      42.450 -42.851   1.271  0.00  0.00    +0.016 A 
ENDROOT
BRANCH   3   1
ATOM      1  O   UNL     1      42.061 -41.318   3.021  0.00  0.00    -0.505 OA
ATOM      2  H   UNL     1      41.489 -41.979   3.444  0.00  0.00    +0.292 HD
ENDBRANCH   3   1
BRANCH   7   8
ATOM      8  C   UNL     1      42.908 -44.413  -0.648  0.00  0.00    +0.209 C 
BRANCH   8   9
ATOM      9  O   UNL     1      42.836 -43.805  -1.925  0.00  0.00    -0.282 OA
BRANCH   9  10
ATOM     10  P   UNL     1      41.388 -43.478  -2.587  0.00  0.00    +0.473 P 
ATOM     11  O   UNL     1      41.355 -43.619  -4.065  0.00  0.00    -0.228 OA
BRANCH  10  12
ATOM     12  O   UNL     1      41.426 -41.851  -2.437  0.00  0.00    -0.303 OA
ATOM     13  H   UNL     1      41.134 -41.460  -3.245  0.00  0.00    +0.222 HD
ENDBRANCH  10  12
BRANCH  10  14
ATOM     14  O   UNL     1      40.090 -44.044  -1.864  0.00  0.00    -0.303 OA
ATOM     15  H   UNL     1      40.346 -44.588  -1.139  0.00  0.00    +0.222 HD
ENDBRANCH  10  14
ENDBRANCH   9  10
ENDBRANCH   8   9
ENDBRANCH   7   8
BRANCH  17  18
ATOM     18  C   UNL     1      40.985 -43.233   1.295  0.00  0.00    +0.121 C 
BRANCH  18  19
ATOM     19  N   UNL     1      40.734 -44.091   2.451  0.00  0.00    -0.300 NA
ATOM     20  H   UNL     1      41.117 -45.042   2.225  0.00  0.00    +0.123 HD
BRANCH  19  21
ATOM     21  C   UNL     1      39.325 -44.190   2.841  0.00  0.00    +0.170 C 
BRANCH  21  22
ATOM     22  C   UNL     1      39.115 -43.459   4.167  0.00  0.00    +0.324 C 
ATOM     23  O   UNL     1      38.031 -43.188   4.632  0.00  0.00    -0.249 OA
BRANCH  22  24
ATOM     24  O   UNL     1      40.312 -43.134   4.733  0.00  0.00    -0.467 OA
ATOM     25  C   UNL     1      40.424 -43.273   6.128  0.00  0.00    +0.280 C 
ENDBRANCH  22  24
ENDBRANCH  21  22
BRANCH  21  26
ATOM     26  C   UNL     1      38.932 -45.680   2.877  0.00  0.00    +0.087 C 
BRANCH  26  27
ATOM     27  C   UNL     1      39.601 -46.473   3.963  0.00  0.00    +0.061 A 
ATOM     28  N   UNL     1      40.857 -46.482   4.131  0.00  0.00    -0.241 NA
ATOM     29  C   UNL     1      41.051 -47.252   5.116  0.00  0.00    +0.196 A 
ATOM     30  N   UNL     1      39.970 -47.728   5.572  0.00  0.00    -0.351 N 
ATOM     31  H   UNL     1      39.877 -48.386   6.379  0.00  0.00    +0.166 HD
ATOM     32  C   UNL     1      39.019 -47.265   4.874  0.00  0.00    +0.107 A 
ENDBRANCH  26  27
ENDBRANCH  21  26
ENDBRANCH  19  21
ENDBRANCH  18  19
ENDBRANCH  17  18
TORSDOF 13
ENDMDL
MODEL 6
REMARK VINA RESULT:      -6.3      3.016      5.166
REMARK  Name = C:\Users\Asus\OneDrive\Рабочий стол\dz3\ligands\Lig1.pdb
REMARK  15 active torsions:
REMARK  status: ('A' for Active; 'I' for Inactive)
REMARK    1  A    between atoms: _1  and  _6
REMARK    2  A    between atoms: _2  and  _3
REMARK    3  A    between atoms: _2  and  _9
REMARK    4  A    between atoms: _3  and  _4
REMARK    5  A    between atoms: _4  and  _13
REMARK    6  A    between atoms: _4  and  _14
REMARK    7  A    between atoms: _8  and  _15
REMARK    8  A    between atoms: _10  and  _12
REMARK    9  A    between atoms: _15  and  _16
REMARK   10  A    between atoms: _16  and  _17
REMARK   11  A    between atoms: _17  and  _18
REMARK   12  A    between atoms: _17  and  _19
REMARK   13  A    between atoms: _18  and  _22
REMARK   14  A    between atoms: _19  and  _20
REMARK   15  A    between atoms: _20  and  _27
REMARK                            x       y       z     vdW  Elec       q    Type
REMARK                         _______ _______ _______ _____ _____    ______ ____
ROOT
ATOM      3  C   UNL     1      39.901 -45.442   4.169  0.00  0.00    +0.142 A 
ATOM      4  C   UNL     1      40.464 -46.022   5.247  0.00  0.00    +0.080 A 
ATOM      5  N   UNL     1      40.916 -45.359   6.226  0.00  0.00    -0.256 NA
ATOM      6  C   UNL     1      40.825 -44.099   6.198  0.00  0.00    +0.117 A 
ATOM      7  C   UNL     1      40.289 -43.395   5.187  0.00  0.00    +0.005 A 
ATOM     16  C   UNL     1      40.598 -47.522   5.370  0.00  0.00    +0.069 C 
ATOM     17  C   UNL     1      39.822 -44.097   4.134  0.00  0.00    +0.016 A 
ENDROOT
BRANCH   3   1
ATOM      1  O   UNL     1      39.420 -46.201   3.147  0.00  0.00    -0.505 OA
ATOM      2  H   UNL     1      38.458 -46.302   3.231  0.00  0.00    +0.292 HD
ENDBRANCH   3   1
BRANCH   7   8
ATOM      8  C   UNL     1      40.203 -41.884   5.270  0.00  0.00    +0.209 C 
BRANCH   8   9
ATOM      9  O   UNL     1      41.495 -41.307   5.210  0.00  0.00    -0.282 OA
BRANCH   9  10
ATOM     10  P   UNL     1      42.136 -40.900   3.774  0.00  0.00    +0.473 P 
ATOM     11  O   UNL     1      43.062 -39.740   3.833  0.00  0.00    -0.228 OA
BRANCH  10  12
ATOM     12  O   UNL     1      40.813 -40.199   3.118  0.00  0.00    -0.303 OA
ATOM     13  H   UNL     1      40.204 -39.985   3.807  0.00  0.00    +0.222 HD
ENDBRANCH  10  12
BRANCH  10  14
ATOM     14  O   UNL     1      42.640 -42.070   2.821  0.00  0.00    -0.303 OA
ATOM     15  H   UNL     1      42.136 -42.065   2.026  0.00  0.00    +0.222 HD
ENDBRANCH  10  14
ENDBRANCH   9  10
ENDBRANCH   8   9
ENDBRANCH   7   8
BRANCH  17  18
ATOM     18  C   UNL     1      39.206 -43.424   2.925  0.00  0.00    +0.121 C 
BRANCH  18  19
ATOM     19  N   UNL     1      40.078 -43.629   1.770  0.00  0.00    -0.300 NA
ATOM     20  H   UNL     1      40.880 -42.956   1.859  0.00  0.00    +0.123 HD
BRANCH  19  21
ATOM     21  C   UNL     1      39.418 -43.463   0.472  0.00  0.00    +0.170 C 
BRANCH  21  22
ATOM     22  C   UNL     1      38.983 -44.832  -0.051  0.00  0.00    +0.324 C 
ATOM     23  O   UNL     1      39.382 -45.887   0.387  0.00  0.00    -0.249 OA
BRANCH  22  24
ATOM     24  O   UNL     1      38.110 -44.697  -1.089  0.00  0.00    -0.467 OA
ATOM     25  C   UNL     1      36.922 -45.449  -1.035  0.00  0.00    +0.280 C 
ENDBRANCH  22  24
ENDBRANCH  21  22
BRANCH  21  26
ATOM     26  C   UNL     1      40.374 -42.706  -0.470  0.00  0.00    +0.087 C 
BRANCH  26  27
ATOM     27  C   UNL     1      41.700 -43.381  -0.682  0.00  0.00    +0.061 A 
ATOM     28  N   UNL     1      42.668 -43.260   0.126  0.00  0.00    -0.241 NA
ATOM     29  C   UNL     1      43.603 -43.950  -0.376  0.00  0.00    +0.196 A 
ATOM     30  N   UNL     1      43.262 -44.497  -1.466  0.00  0.00    -0.351 N 
ATOM     31  H   UNL     1      43.862 -45.111  -2.062  0.00  0.00    +0.166 HD
ATOM     32  C   UNL     1      42.062 -44.167  -1.706  0.00  0.00    +0.107 A 
ENDBRANCH  26  27
ENDBRANCH  21  26
ENDBRANCH  19  21
ENDBRANCH  18  19
ENDBRANCH  17  18
TORSDOF 13
ENDMDL
MODEL 7
REMARK VINA RESULT:      -6.2     11.545     14.912
REMARK  Name = C:\Users\Asus\OneDrive\Рабочий стол\dz3\ligands\Lig1.pdb
REMARK  15 active torsions:
REMARK  status: ('A' for Active; 'I' for Inactive)
REMARK    1  A    between atoms: _1  and  _6
REMARK    2  A    between atoms: _2  and  _3
REMARK    3  A    between atoms: _2  and  _9
REMARK    4  A    between atoms: _3  and  _4
REMARK    5  A    between atoms: _4  and  _13
REMARK    6  A    between atoms: _4  and  _14
REMARK    7  A    between atoms: _8  and  _15
REMARK    8  A    between atoms: _10  and  _12
REMARK    9  A    between atoms: _15  and  _16
REMARK   10  A    between atoms: _16  and  _17
REMARK   11  A    between atoms: _17  and  _18
REMARK   12  A    between atoms: _17  and  _19
REMARK   13  A    between atoms: _18  and  _22
REMARK   14  A    between atoms: _19  and  _20
REMARK   15  A    between atoms: _20  and  _27
REMARK                            x       y       z     vdW  Elec       q    Type
REMARK                         _______ _______ _______ _____ _____    ______ ____
ROOT
ATOM      3  C   UNL     1      32.744 -52.510   3.518  0.00  0.00    +0.142 A 
ATOM      4  C   UNL     1      32.464 -51.276   3.057  0.00  0.00    +0.080 A 
ATOM      5  N   UNL     1      33.317 -50.342   3.032  0.00  0.00    -0.256 NA
ATOM      6  C   UNL     1      34.486 -50.578   3.449  0.00  0.00    +0.117 A 
ATOM      7  C   UNL     1      34.898 -51.761   3.934  0.00  0.00    +0.005 A 
ATOM     16  C   UNL     1      31.096 -50.912   2.526  0.00  0.00    +0.069 C 
ATOM     17  C   UNL     1      33.987 -52.755   3.978  0.00  0.00    +0.016 A 
ENDROOT
BRANCH   3   1
ATOM      1  O   UNL     1      31.793 -53.484   3.512  0.00  0.00    -0.505 OA
ATOM      2  H   UNL     1      31.188 -53.364   4.261  0.00  0.00    +0.292 HD
ENDBRANCH   3   1
BRANCH   7   8
ATOM      8  C   UNL     1      36.336 -51.945   4.379  0.00  0.00    +0.209 C 
BRANCH   8   9
ATOM      9  O   UNL     1      36.503 -51.512   5.717  0.00  0.00    -0.282 OA
BRANCH   9  10
ATOM     10  P   UNL     1      37.200 -52.496   6.807  0.00  0.00    +0.473 P 
ATOM     11  O   UNL     1      37.094 -53.939   6.471  0.00  0.00    -0.228 OA
BRANCH  10  12
ATOM     12  O   UNL     1      36.073 -52.374   7.985  0.00  0.00    -0.303 OA
ATOM     13  H   UNL     1      36.507 -52.307   8.820  0.00  0.00    +0.222 HD
ENDBRANCH  10  12
BRANCH  10  14
ATOM     14  O   UNL     1      38.620 -52.080   7.390  0.00  0.00    -0.303 OA
ATOM     15  H   UNL     1      38.807 -51.188   7.153  0.00  0.00    +0.222 HD
ENDBRANCH  10  14
ENDBRANCH   9  10
ENDBRANCH   8   9
ENDBRANCH   7   8
BRANCH  17  18
ATOM     18  C   UNL     1      34.319 -54.132   4.515  0.00  0.00    +0.121 C 
BRANCH  18  19
ATOM     19  N   UNL     1      34.027 -54.168   5.946  0.00  0.00    -0.300 NA
ATOM     20  H   UNL     1      34.940 -54.065   6.455  0.00  0.00    +0.123 HD
BRANCH  19  21
ATOM     21  C   UNL     1      33.329 -55.376   6.394  0.00  0.00    +0.170 C 
BRANCH  21  22
ATOM     22  C   UNL     1      34.057 -55.960   7.604  0.00  0.00    +0.324 C 
ATOM     23  O   UNL     1      34.304 -57.136   7.750  0.00  0.00    -0.249 OA
BRANCH  22  24
ATOM     24  O   UNL     1      34.365 -54.981   8.501  0.00  0.00    -0.467 OA
ATOM     25  C   UNL     1      34.375 -55.333   9.863  0.00  0.00    +0.280 C 
ENDBRANCH  22  24
ENDBRANCH  21  22
BRANCH  21  26
ATOM     26  C   UNL     1      33.215 -56.346   5.202  0.00  0.00    +0.087 C 
BRANCH  26  27
ATOM     27  C   UNL     1      31.812 -56.784   4.889  0.00  0.00    +0.061 A 
ATOM     28  N   UNL     1      31.234 -56.504   3.798  0.00  0.00    -0.241 NA
ATOM     29  C   UNL     1      30.083 -57.021   3.893  0.00  0.00    +0.196 A 
ATOM     30  N   UNL     1      29.916 -57.613   5.000  0.00  0.00    -0.351 N 
ATOM     31  H   UNL     1      29.050 -58.112   5.308  0.00  0.00    +0.166 HD
ATOM     32  C   UNL     1      30.984 -57.491   5.670  0.00  0.00    +0.107 A 
ENDBRANCH  26  27
ENDBRANCH  21  26
ENDBRANCH  19  21
ENDBRANCH  18  19
ENDBRANCH  17  18
TORSDOF 13
ENDMDL
MODEL 8
REMARK VINA RESULT:      -6.2      2.689      5.245
REMARK  Name = C:\Users\Asus\OneDrive\Рабочий стол\dz3\ligands\Lig1.pdb
REMARK  15 active torsions:
REMARK  status: ('A' for Active; 'I' for Inactive)
REMARK    1  A    between atoms: _1  and  _6
REMARK    2  A    between atoms: _2  and  _3
REMARK    3  A    between atoms: _2  and  _9
REMARK    4  A    between atoms: _3  and  _4
REMARK    5  A    between atoms: _4  and  _13
REMARK    6  A    between atoms: _4  and  _14
REMARK    7  A    between atoms: _8  and  _15
REMARK    8  A    between atoms: _10  and  _12
REMARK    9  A    between atoms: _15  and  _16
REMARK   10  A    between atoms: _16  and  _17
REMARK   11  A    between atoms: _17  and  _18
REMARK   12  A    between atoms: _17  and  _19
REMARK   13  A    between atoms: _18  and  _22
REMARK   14  A    between atoms: _19  and  _20
REMARK   15  A    between atoms: _20  and  _27
REMARK                            x       y       z     vdW  Elec       q    Type
REMARK                         _______ _______ _______ _____ _____    ______ ____
ROOT
ATOM      3  C   UNL     1      40.100 -45.496   3.812  0.00  0.00    +0.142 A 
ATOM      4  C   UNL     1      40.494 -45.892   5.037  0.00  0.00    +0.080 A 
ATOM      5  N   UNL     1      40.705 -45.082   5.987  0.00  0.00    -0.256 NA
ATOM      6  C   UNL     1      40.527 -43.849   5.781  0.00  0.00    +0.117 A 
ATOM      7  C   UNL     1      40.138 -43.319   4.609  0.00  0.00    +0.005 A 
ATOM     16  C   UNL     1      40.714 -47.349   5.374  0.00  0.00    +0.069 C 
ATOM     17  C   UNL     1      39.928 -44.177   3.590  0.00  0.00    +0.016 A 
ENDROOT
BRANCH   3   1
ATOM      1  O   UNL     1      39.876 -46.408   2.827  0.00  0.00    -0.505 OA
ATOM      2  H   UNL     1      40.667 -46.954   2.693  0.00  0.00    +0.292 HD
ENDBRANCH   3   1
BRANCH   7   8
ATOM      8  C   UNL     1      39.925 -41.823   4.480  0.00  0.00    +0.209 C 
BRANCH   8   9
ATOM      9  O   UNL     1      41.032 -41.115   5.008  0.00  0.00    -0.282 OA
BRANCH   9  10
ATOM     10  P   UNL     1      42.304 -40.774   4.057  0.00  0.00    +0.473 P 
ATOM     11  O   UNL     1      42.168 -41.273   2.665  0.00  0.00    -0.228 OA
BRANCH  10  12
ATOM     12  O   UNL     1      43.353 -41.868   4.671  0.00  0.00    -0.303 OA
ATOM     13  H   UNL     1      42.899 -42.682   4.816  0.00  0.00    +0.222 HD
ENDBRANCH  10  12
BRANCH  10  14
ATOM     14  O   UNL     1      42.942 -39.320   4.154  0.00  0.00    -0.303 OA
ATOM     15  H   UNL     1      43.398 -39.231   4.972  0.00  0.00    +0.222 HD
ENDBRANCH  10  14
ENDBRANCH   9  10
ENDBRANCH   8   9
ENDBRANCH   7   8
BRANCH  17  18
ATOM     18  C   UNL     1      39.500 -43.708   2.215  0.00  0.00    +0.121 C 
BRANCH  18  19
ATOM     19  N   UNL     1      40.689 -43.490   1.394  0.00  0.00    -0.300 NA
ATOM     20  H   UNL     1      40.645 -42.505   1.034  0.00  0.00    +0.123 HD
BRANCH  19  21
ATOM     21  C   UNL     1      40.841 -44.432   0.281  0.00  0.00    +0.170 C 
BRANCH  21  22
ATOM     22  C   UNL     1      42.262 -44.334  -0.272  0.00  0.00    +0.324 C 
ATOM     23  O   UNL     1      42.656 -44.930  -1.249  0.00  0.00    -0.249 OA
BRANCH  22  24
ATOM     24  O   UNL     1      43.024 -43.508   0.499  0.00  0.00    -0.467 OA
ATOM     25  C   UNL     1      44.269 -43.106  -0.019  0.00  0.00    +0.280 C 
ENDBRANCH  22  24
ENDBRANCH  21  22
BRANCH  21  26
ATOM     26  C   UNL     1      39.741 -44.141  -0.759  0.00  0.00    +0.087 C 
BRANCH  26  27
ATOM     27  C   UNL     1      39.724 -42.727  -1.266  0.00  0.00    +0.061 A 
ATOM     28  N   UNL     1      38.975 -41.831  -0.774  0.00  0.00    -0.241 NA
ATOM     29  C   UNL     1      39.223 -40.789  -1.447  0.00  0.00    +0.196 A 
ATOM     30  N   UNL     1      40.095 -40.994  -2.343  0.00  0.00    -0.351 N 
ATOM     31  H   UNL     1      40.460 -40.288  -3.021  0.00  0.00    +0.166 HD
ATOM     32  C   UNL     1      40.445 -42.210  -2.270  0.00  0.00    +0.107 A 
ENDBRANCH  26  27
ENDBRANCH  21  26
ENDBRANCH  19  21
ENDBRANCH  18  19
ENDBRANCH  17  18
TORSDOF 13
ENDMDL
MODEL 9
REMARK VINA RESULT:      -6.2      3.273      4.540
REMARK  Name = C:\Users\Asus\OneDrive\Рабочий стол\dz3\ligands\Lig1.pdb
REMARK  15 active torsions:
REMARK  status: ('A' for Active; 'I' for Inactive)
REMARK    1  A    between atoms: _1  and  _6
REMARK    2  A    between atoms: _2  and  _3
REMARK    3  A    between atoms: _2  and  _9
REMARK    4  A    between atoms: _3  and  _4
REMARK    5  A    between atoms: _4  and  _13
REMARK    6  A    between atoms: _4  and  _14
REMARK    7  A    between atoms: _8  and  _15
REMARK    8  A    between atoms: _10  and  _12
REMARK    9  A    between atoms: _15  and  _16
REMARK   10  A    between atoms: _16  and  _17
REMARK   11  A    between atoms: _17  and  _18
REMARK   12  A    between atoms: _17  and  _19
REMARK   13  A    between atoms: _18  and  _22
REMARK   14  A    between atoms: _19  and  _20
REMARK   15  A    between atoms: _20  and  _27
REMARK                            x       y       z     vdW  Elec       q    Type
REMARK                         _______ _______ _______ _____ _____    ______ ____
ROOT
ATOM      3  C   UNL     1      41.377 -41.977   3.286  0.00  0.00    +0.142 A 
ATOM      4  C   UNL     1      41.942 -41.332   4.326  0.00  0.00    +0.080 A 
ATOM      5  N   UNL     1      41.688 -41.619   5.532  0.00  0.00    -0.256 NA
ATOM      6  C   UNL     1      40.879 -42.558   5.774  0.00  0.00    +0.117 A 
ATOM      7  C   UNL     1      40.246 -43.280   4.835  0.00  0.00    +0.005 A 
ATOM     16  C   UNL     1      42.932 -40.208   4.126  0.00  0.00    +0.069 C 
ATOM     17  C   UNL     1      40.500 -42.968   3.548  0.00  0.00    +0.016 A 
ENDROOT
BRANCH   3   1
ATOM      1  O   UNL     1      41.692 -41.638   2.007  0.00  0.00    -0.505 OA
ATOM      2  H   UNL     1      41.333 -42.296   1.390  0.00  0.00    +0.292 HD
ENDBRANCH   3   1
BRANCH   7   8
ATOM      8  C   UNL     1      39.316 -44.408   5.237  0.00  0.00    +0.209 C 
BRANCH   8   9
ATOM      9  O   UNL     1      39.595 -45.576   4.487  0.00  0.00    -0.282 OA
BRANCH   9  10
ATOM     10  P   UNL     1      40.545 -46.735   5.115  0.00  0.00    +0.473 P 
ATOM     11  O   UNL     1      41.694 -46.214   5.900  0.00  0.00    -0.228 OA
BRANCH  10  12
ATOM     12  O   UNL     1      41.300 -47.189   3.737  0.00  0.00    -0.303 OA
ATOM     13  H   UNL     1      40.718 -47.733   3.232  0.00  0.00    +0.222 HD
ENDBRANCH  10  12
BRANCH  10  14
ATOM     14  O   UNL     1      39.845 -48.002   5.774  0.00  0.00    -0.303 OA
ATOM     15  H   UNL     1      38.910 -47.904   5.726  0.00  0.00    +0.222 HD
ENDBRANCH  10  14
ENDBRANCH   9  10
ENDBRANCH   8   9
ENDBRANCH   7   8
BRANCH  17  18
ATOM     18  C   UNL     1      39.842 -43.696   2.394  0.00  0.00    +0.121 C 
BRANCH  18  19
ATOM     19  N   UNL     1      40.831 -44.551   1.744  0.00  0.00    -0.300 NA
ATOM     20  H   UNL     1      41.781 -44.197   2.018  0.00  0.00    +0.123 HD
BRANCH  19  21
ATOM     21  C   UNL     1      40.715 -44.615   0.284  0.00  0.00    +0.170 C 
BRANCH  21  22
ATOM     22  C   UNL     1      42.093 -44.399  -0.341  0.00  0.00    +0.324 C 
ATOM     23  O   UNL     1      42.509 -45.007  -1.302  0.00  0.00    -0.249 OA
BRANCH  22  24
ATOM     24  O   UNL     1      42.791 -43.451   0.345  0.00  0.00    -0.467 OA
ATOM     25  C   UNL     1      44.138 -43.255  -0.013  0.00  0.00    +0.280 C 
ENDBRANCH  22  24
ENDBRANCH  21  22
BRANCH  21  26
ATOM     26  C   UNL     1      39.654 -43.592  -0.167  0.00  0.00    +0.087 C 
BRANCH  26  27
ATOM     27  C   UNL     1      38.407 -44.202  -0.741  0.00  0.00    +0.061 A 
ATOM     28  N   UNL     1      37.943 -45.312  -0.346  0.00  0.00    -0.241 NA
ATOM     29  C   UNL     1      36.910 -45.506  -1.050  0.00  0.00    +0.196 A 
ATOM     30  N   UNL     1      36.707 -44.563  -1.871  0.00  0.00    -0.351 N 
ATOM     31  H   UNL     1      35.920 -44.501  -2.556  0.00  0.00    +0.166 HD
ATOM     32  C   UNL     1      37.631 -43.711  -1.716  0.00  0.00    +0.107 A 
ENDBRANCH  26  27
ENDBRANCH  21  26
ENDBRANCH  19  21
ENDBRANCH  18  19
ENDBRANCH  17  18
TORSDOF 13
ENDMDL
