Fragment
  Chem3D Core 18.012152111033D

 48 49  0  0  0  0  0  0  0  0999 V2000
   -2.6646    0.7062   -2.3692 C   0  0  0  0  0  0  0  0  0  0  0  0
   -3.7756    0.5965   -1.7781 N   0  0  0  0  0  0  0  0  0  0  0  0
   -3.7869    0.5374   -0.5139 C   0  0  0  0  0  0  0  0  0  0  0  0
   -2.6660    0.5961    0.2306 C   0  0  0  0  0  0  0  0  0  0  0  0
   -1.4830    0.7300   -0.4023 C   0  0  0  0  0  0  0  0  0  0  0  0
   -1.4746    0.7768   -1.7503 C   0  0  0  0  0  0  0  0  0  0  0  0
   -5.1547    0.3914    0.1107 C   0  0  0  0  0  0  0  0  0  0  0  0
   -2.7309    0.5154    1.5882 O   0  0  0  0  0  0  0  0  0  0  0  0
   -0.1965    0.8757   -2.5602 C   0  0  0  0  0  0  0  0  0  0  0  0
    0.3216    2.1925   -2.5155 O   0  0  0  0  0  0  0  0  0  0  0  0
    1.8570    2.4756   -2.9631 P   0  0  0  0  0  0  0  0  0  0  0  0
    2.6342    1.2456   -3.2628 O   0  0  0  0  0  0  0  0  0  0  0  0
    2.1331    3.6684   -3.9792 O   0  0  0  0  0  0  0  0  0  0  0  0
    2.4605    2.8648   -1.4937 O   0  0  0  0  0  0  0  0  0  0  0  0
   -0.2116    0.8139    0.4173 C   0  0  0  0  0  0  0  0  0  0  0  0
    0.2191   -0.5367    0.7677 N   0  0  0  0  0  0  0  0  0  0  0  0
    1.5797   -0.6207    1.3055 C   0  0  0  0  0  0  0  0  0  0  0  0
    1.7116   -1.9354    2.1008 C   0  0  0  0  0  0  0  0  0  0  0  0
    2.5846   -0.4829    0.1617 C   0  0  0  0  0  0  0  0  0  0  0  0
    2.8393   -1.6956   -0.4049 O   0  0  0  0  0  0  0  0  0  0  0  0
    3.0653    0.5669   -0.2003 O   0  0  0  0  0  0  0  0  0  0  0  0
    3.0818   -2.1878    2.6604 C   0  0  0  0  0  0  0  0  0  0  0  0
    3.9941   -1.3094    2.6645 N   0  0  0  0  0  0  0  0  0  0  0  0
    4.9931   -1.8738    3.1966 C   0  0  0  0  0  0  0  0  0  0  0  0
    4.7462   -3.0720    3.5260 N   0  0  0  0  0  0  0  0  0  0  0  0
    3.5463   -3.3210    3.2060 C   0  0  0  0  0  0  0  0  0  0  0  0
    3.7510   -1.7289   -1.4761 C   0  0  0  0  0  0  0  0  0  0  0  0
   -2.7196    0.7402   -3.4703 H   0  0  0  0  0  0  0  0  0  0  0  0
   -5.3601    1.2466    0.7942 H   0  0  0  0  0  0  0  0  0  0  0  0
   -5.9742    0.3646   -0.6426 H   0  0  0  0  0  0  0  0  0  0  0  0
   -5.2119   -0.5536    0.6978 H   0  0  0  0  0  0  0  0  0  0  0  0
   -3.6537    0.4184    1.8716 H   0  0  0  0  0  0  0  0  0  0  0  0
    0.5337    0.1472   -2.1397 H   0  0  0  0  0  0  0  0  0  0  0  0
   -0.3593    0.5939   -3.6254 H   0  0  0  0  0  0  0  0  0  0  0  0
    1.4276    4.2889   -3.9328 H   0  0  0  0  0  0  0  0  0  0  0  0
    2.9842    2.1480   -1.1763 H   0  0  0  0  0  0  0  0  0  0  0  0
    0.5841    1.3625   -0.1253 H   0  0  0  0  0  0  0  0  0  0  0  0
   -0.3802    1.4055    1.3459 H   0  0  0  0  0  0  0  0  0  0  0  0
   -0.4708   -0.9165    1.4624 H   0  0  0  0  0  0  0  0  0  0  0  0
    1.7446    0.2257    2.0158 H   0  0  0  0  0  0  0  0  0  0  0  0
    0.9980   -1.9186    2.9590 H   0  0  0  0  0  0  0  0  0  0  0  0
    1.4221   -2.8025    1.4622 H   0  0  0  0  0  0  0  0  0  0  0  0
    5.9742   -1.4177    3.3691 H   0  0  0  0  0  0  0  0  0  0  0  0
    5.4134   -3.7369    3.9792 H   0  0  0  0  0  0  0  0  0  0  0  0
    3.0654   -4.2889    3.3744 H   0  0  0  0  0  0  0  0  0  0  0  0
    3.9110   -2.7940   -1.7559 H   0  0  0  0  0  0  0  0  0  0  0  0
    3.3278   -1.1905   -2.3520 H   0  0  0  0  0  0  0  0  0  0  0  0
    4.7266   -1.2910   -1.1676 H   0  0  0  0  0  0  0  0  0  0  0  0
  1  2  2  0      
  6  1  1  0      
  1 28  1  0      
  2  3  1  0      
  4  3  2  0      
  3  7  1  0      
  4  5  1  0      
  4  8  1  0      
  5  6  2  0      
  5 15  1  0      
  6  9  1  0      
  7 29  1  0      
  7 30  1  0      
  7 31  1  0      
  8 32  1  0      
  9 10  1  0      
  9 33  1  0      
  9 34  1  0      
 10 11  1  0      
 11 12  2  0      
 11 13  1  0      
 11 14  1  0      
 13 35  1  0      
 14 36  1  0      
 15 16  1  0      
 15 37  1  0      
 15 38  1  0      
 16 17  1  0      
 16 39  1  0      
 17 18  1  0      
 17 19  1  0      
 17 40  1  0      
 18 22  1  0      
 18 41  1  0      
 18 42  1  0      
 19 20  1  0      
 19 21  2  0      
 20 27  1  0      
 22 23  1  0      
 22 26  2  0      
 24 23  2  0      
 25 24  1  0      
 24 43  1  0      
 26 25  1  0      
 25 44  1  0      
 26 45  1  0      
 27 46  1  0      
 27 47  1  0      
 27 48  1  0      
M  END
$$$$
