MODEL 1
REMARK VINA RESULT:      -5.0      0.000      0.000
REMARK  Name = C:\Users\Asus\OneDrive\Рабочий стол\dz3\ligands\Lig3.pdb
REMARK  9 active torsions:
REMARK  status: ('A' for Active; 'I' for Inactive)
REMARK    1  A    between atoms: _5  and  _7
REMARK    2  A    between atoms: _5  and  _17
REMARK    3  A    between atoms: _7  and  _29
REMARK    4  A    between atoms: _9  and  _16
REMARK    5  A    between atoms: _9  and  _29
REMARK    6  A    between atoms: _10  and  _12
REMARK    7  A    between atoms: _10  and  _14
REMARK    8  A    between atoms: _14  and  _15
REMARK    9  A    between atoms: _18  and  _29
REMARK                            x       y       z     vdW  Elec       q    Type
REMARK                         _______ _______ _______ _____ _____    ______ ____
ROOT
ATOM      8  C   UNL     1      33.978 -56.287   6.738  0.00  0.00    +0.188 C 
ENDROOT
BRANCH   8   9
ATOM      9  N   UNL     1      35.263 -55.616   6.501  0.00  0.00    -0.302 N 
ATOM     10  H   UNL     1      36.081 -56.182   6.280  0.00  0.00    +0.150 HD
ATOM     11  C   UNL     1      35.428 -54.297   6.795  0.00  0.00    +0.212 C 
ATOM     12  O   UNL     1      34.545 -53.524   7.059  0.00  0.00    -0.276 OA
BRANCH  11  13
ATOM     13  C   UNL     1      36.837 -53.844   7.114  0.00  0.00    +0.076 C 
BRANCH  13  14
ATOM     14  C   UNL     1      37.091 -52.544   6.311  0.00  0.00    -0.077 C 
BRANCH  14  15
ATOM     15  N   UNL     1      36.684 -52.709   4.857  0.00  0.00    +0.378 N 
ATOM     16  H   UNL     1      37.503 -53.043   4.301  0.00  0.00    -0.090 HD
ATOM     17  H   UNL     1      36.380 -51.779   4.487  0.00  0.00    -0.090 HD
ATOM     18  H   UNL     1      35.891 -53.379   4.764  0.00  0.00    -0.090 HD
ENDBRANCH  14  15
ENDBRANCH  13  14
ENDBRANCH  11  13
ENDBRANCH   8   9
BRANCH   8  19
ATOM     19  C   UNL     1      34.101 -57.169   7.998  0.00  0.00    +0.328 C 
ATOM     20  O   UNL     1      34.233 -56.716   9.116  0.00  0.00    -0.249 OA
BRANCH  19  21
ATOM     21  O   UNL     1      34.000 -58.487   7.675  0.00  0.00    -0.467 OA
ATOM     22  C   UNL     1      33.381 -59.326   8.620  0.00  0.00    +0.280 C 
ENDBRANCH  19  21
ENDBRANCH   8  19
BRANCH   8   7
ATOM      7  C   UNL     1      33.566 -57.084   5.486  0.00  0.00    +0.090 C 
BRANCH   7   6
ATOM      1  C   UNL     1      33.603 -56.453   3.003  0.00  0.00    +0.107 A 
ATOM      2  N   UNL     1      33.234 -55.415   2.380  0.00  0.00    -0.351 N 
ATOM      3  C   UNL     1      32.779 -54.589   3.227  0.00  0.00    +0.196 A 
ATOM      4  N   UNL     1      32.832 -55.044   4.406  0.00  0.00    -0.241 NA
ATOM      5  H   UNL     1      33.295 -55.265   1.347  0.00  0.00    +0.166 HD
ATOM      6  C   UNL     1      33.336 -56.200   4.293  0.00  0.00    +0.061 A 
ENDBRANCH   7   6
ENDBRANCH   8   7
TORSDOF 8
ENDMDL
MODEL 2
REMARK VINA RESULT:      -4.9      1.669      4.513
REMARK  Name = C:\Users\Asus\OneDrive\Рабочий стол\dz3\ligands\Lig3.pdb
REMARK  9 active torsions:
REMARK  status: ('A' for Active; 'I' for Inactive)
REMARK    1  A    between atoms: _5  and  _7
REMARK    2  A    between atoms: _5  and  _17
REMARK    3  A    between atoms: _7  and  _29
REMARK    4  A    between atoms: _9  and  _16
REMARK    5  A    between atoms: _9  and  _29
REMARK    6  A    between atoms: _10  and  _12
REMARK    7  A    between atoms: _10  and  _14
REMARK    8  A    between atoms: _14  and  _15
REMARK    9  A    between atoms: _18  and  _29
REMARK                            x       y       z     vdW  Elec       q    Type
REMARK                         _______ _______ _______ _____ _____    ______ ____
ROOT
ATOM      8  C   UNL     1      34.666 -55.842   6.532  0.00  0.00    +0.188 C 
ENDROOT
BRANCH   8   9
ATOM      9  N   UNL     1      33.692 -54.986   5.841  0.00  0.00    -0.302 N 
ATOM     10  H   UNL     1      32.836 -54.723   6.326  0.00  0.00    +0.150 HD
ATOM     11  C   UNL     1      33.803 -54.737   4.507  0.00  0.00    +0.212 C 
ATOM     12  O   UNL     1      34.763 -54.987   3.826  0.00  0.00    -0.276 OA
BRANCH  11  13
ATOM     13  C   UNL     1      32.523 -54.407   3.770  0.00  0.00    +0.076 C 
BRANCH  13  14
ATOM     14  C   UNL     1      31.934 -55.744   3.256  0.00  0.00    -0.077 C 
BRANCH  14  15
ATOM     15  N   UNL     1      32.735 -56.280   2.081  0.00  0.00    +0.378 N 
ATOM     16  H   UNL     1      32.224 -57.080   1.646  0.00  0.00    -0.090 HD
ATOM     17  H   UNL     1      33.659 -56.619   2.434  0.00  0.00    -0.090 HD
ATOM     18  H   UNL     1      32.904 -55.535   1.372  0.00  0.00    -0.090 HD
ENDBRANCH  14  15
ENDBRANCH  13  14
ENDBRANCH  11  13
ENDBRANCH   8   9
BRANCH   8  19
ATOM     19  C   UNL     1      34.019 -57.215   6.805  0.00  0.00    +0.328 C 
ATOM     20  O   UNL     1      33.648 -57.963   5.924  0.00  0.00    -0.249 OA
BRANCH  19  21
ATOM     21  O   UNL     1      33.966 -57.465   8.141  0.00  0.00    -0.467 OA
ATOM     22  C   UNL     1      34.020 -58.815   8.537  0.00  0.00    +0.280 C 
ENDBRANCH  19  21
ENDBRANCH   8  19
BRANCH   8   7
ATOM      7  C   UNL     1      35.157 -55.144   7.814  0.00  0.00    +0.090 C 
BRANCH   7   6
ATOM      1  C   UNL     1      35.899 -52.697   7.656  0.00  0.00    +0.107 A 
ATOM      2  N   UNL     1      36.985 -52.155   7.297  0.00  0.00    -0.351 N 
ATOM      3  C   UNL     1      37.794 -53.075   6.970  0.00  0.00    +0.196 A 
ATOM      4  N   UNL     1      37.281 -54.223   7.100  0.00  0.00    -0.241 NA
ATOM      5  H   UNL     1      37.181 -51.128   7.275  0.00  0.00    +0.166 HD
ATOM      6  C   UNL     1      36.106 -54.015   7.526  0.00  0.00    +0.061 A 
ENDBRANCH   7   6
ENDBRANCH   8   7
TORSDOF 8
ENDMDL
MODEL 3
REMARK VINA RESULT:      -4.9     23.944     26.566
REMARK  Name = C:\Users\Asus\OneDrive\Рабочий стол\dz3\ligands\Lig3.pdb
REMARK  9 active torsions:
REMARK  status: ('A' for Active; 'I' for Inactive)
REMARK    1  A    between atoms: _5  and  _7
REMARK    2  A    between atoms: _5  and  _17
REMARK    3  A    between atoms: _7  and  _29
REMARK    4  A    between atoms: _9  and  _16
REMARK    5  A    between atoms: _9  and  _29
REMARK    6  A    between atoms: _10  and  _12
REMARK    7  A    between atoms: _10  and  _14
REMARK    8  A    between atoms: _14  and  _15
REMARK    9  A    between atoms: _18  and  _29
REMARK                            x       y       z     vdW  Elec       q    Type
REMARK                         _______ _______ _______ _____ _____    ______ ____
ROOT
ATOM      8  C   UNL     1      45.668 -35.717  -6.338  0.00  0.00    +0.188 C 
ENDROOT
BRANCH   8   9
ATOM      9  N   UNL     1      46.378 -34.532  -5.837  0.00  0.00    -0.302 N 
ATOM     10  H   UNL     1      47.009 -34.635  -5.044  0.00  0.00    +0.150 HD
ATOM     11  C   UNL     1      46.034 -33.283  -6.255  0.00  0.00    +0.212 C 
ATOM     12  O   UNL     1      45.311 -33.030  -7.181  0.00  0.00    -0.276 OA
BRANCH  11  13
ATOM     13  C   UNL     1      46.335 -32.144  -5.304  0.00  0.00    +0.076 C 
BRANCH  13  14
ATOM     14  C   UNL     1      45.448 -32.350  -4.051  0.00  0.00    -0.077 C 
BRANCH  14  15
ATOM     15  N   UNL     1      43.989 -32.533  -4.436  0.00  0.00    +0.378 N 
ATOM     16  H   UNL     1      43.474 -32.982  -3.646  0.00  0.00    -0.090 HD
ATOM     17  H   UNL     1      43.941 -33.159  -5.272  0.00  0.00    -0.090 HD
ATOM     18  H   UNL     1      43.549 -31.620  -4.678  0.00  0.00    -0.090 HD
ENDBRANCH  14  15
ENDBRANCH  13  14
ENDBRANCH  11  13
ENDBRANCH   8   9
BRANCH   8  19
ATOM     19  C   UNL     1      44.478 -36.019  -5.403  0.00  0.00    +0.328 C 
ATOM     20  O   UNL     1      43.475 -35.337  -5.362  0.00  0.00    -0.249 OA
BRANCH  19  21
ATOM     21  O   UNL     1      44.705 -37.152  -4.685  0.00  0.00    -0.467 OA
ATOM     22  C   UNL     1      43.627 -38.046  -4.551  0.00  0.00    +0.280 C 
ENDBRANCH  19  21
ENDBRANCH   8  19
BRANCH   8   7
ATOM      7  C   UNL     1      46.647 -36.899  -6.462  0.00  0.00    +0.090 C 
BRANCH   7   6
ATOM      1  C   UNL     1      48.198 -37.840  -8.271  0.00  0.00    +0.107 A 
ATOM      2  N   UNL     1      48.565 -37.396  -9.399  0.00  0.00    -0.351 N 
ATOM      3  C   UNL     1      48.013 -36.269  -9.575  0.00  0.00    +0.196 A 
ATOM      4  N   UNL     1      47.283 -35.942  -8.596  0.00  0.00    -0.241 NA
ATOM      5  H   UNL     1      49.211 -37.875 -10.067  0.00  0.00    +0.166 HD
ATOM      6  C   UNL     1      47.379 -36.902  -7.775  0.00  0.00    +0.061 A 
ENDBRANCH   7   6
ENDBRANCH   8   7
TORSDOF 8
ENDMDL
MODEL 4
REMARK VINA RESULT:      -4.8      2.399      4.419
REMARK  Name = C:\Users\Asus\OneDrive\Рабочий стол\dz3\ligands\Lig3.pdb
REMARK  9 active torsions:
REMARK  status: ('A' for Active; 'I' for Inactive)
REMARK    1  A    between atoms: _5  and  _7
REMARK    2  A    between atoms: _5  and  _17
REMARK    3  A    between atoms: _7  and  _29
REMARK    4  A    between atoms: _9  and  _16
REMARK    5  A    between atoms: _9  and  _29
REMARK    6  A    between atoms: _10  and  _12
REMARK    7  A    between atoms: _10  and  _14
REMARK    8  A    between atoms: _14  and  _15
REMARK    9  A    between atoms: _18  and  _29
REMARK                            x       y       z     vdW  Elec       q    Type
REMARK                         _______ _______ _______ _____ _____    ______ ____
ROOT
ATOM      8  C   UNL     1      34.962 -55.807   6.707  0.00  0.00    +0.188 C 
ENDROOT
BRANCH   8   9
ATOM      9  N   UNL     1      35.204 -54.456   7.231  0.00  0.00    -0.302 N 
ATOM     10  H   UNL     1      34.407 -53.880   7.494  0.00  0.00    +0.150 HD
ATOM     11  C   UNL     1      36.439 -53.887   7.153  0.00  0.00    +0.212 C 
ATOM     12  O   UNL     1      37.456 -54.461   6.867  0.00  0.00    -0.276 OA
BRANCH  11  13
ATOM     13  C   UNL     1      36.487 -52.374   7.122  0.00  0.00    +0.076 C 
BRANCH  13  14
ATOM     14  C   UNL     1      36.021 -51.932   5.713  0.00  0.00    -0.077 C 
BRANCH  14  15
ATOM     15  N   UNL     1      36.715 -52.738   4.628  0.00  0.00    +0.378 N 
ATOM     16  H   UNL     1      37.746 -52.731   4.793  0.00  0.00    -0.090 HD
ATOM     17  H   UNL     1      36.516 -52.294   3.703  0.00  0.00    -0.090 HD
ATOM     18  H   UNL     1      36.362 -53.719   4.607  0.00  0.00    -0.090 HD
ENDBRANCH  14  15
ENDBRANCH  13  14
ENDBRANCH  11  13
ENDBRANCH   8   9
BRANCH   8  19
ATOM     19  C   UNL     1      33.990 -55.712   5.512  0.00  0.00    +0.328 C 
ATOM     20  O   UNL     1      32.880 -56.199   5.517  0.00  0.00    -0.249 OA
BRANCH  19  21
ATOM     21  O   UNL     1      34.541 -54.986   4.501  0.00  0.00    -0.467 OA
ATOM     22  C   UNL     1      33.651 -54.331   3.631  0.00  0.00    +0.280 C 
ENDBRANCH  19  21
ENDBRANCH   8  19
BRANCH   8   7
ATOM      7  C   UNL     1      34.439 -56.719   7.833  0.00  0.00    +0.090 C 
BRANCH   7   6
ATOM      1  C   UNL     1      32.497 -55.607   9.081  0.00  0.00    +0.107 A 
ATOM      2  N   UNL     1      32.438 -54.964  10.170  0.00  0.00    -0.351 N 
ATOM      3  C   UNL     1      33.606 -54.909  10.658  0.00  0.00    +0.196 A 
ATOM      4  N   UNL     1      34.452 -55.498   9.926  0.00  0.00    -0.241 NA
ATOM      5  H   UNL     1      31.575 -54.551  10.592  0.00  0.00    +0.166 HD
ATOM      6  C   UNL     1      33.788 -55.943   8.943  0.00  0.00    +0.061 A 
ENDBRANCH   7   6
ENDBRANCH   8   7
TORSDOF 8
ENDMDL
MODEL 5
REMARK VINA RESULT:      -4.7      8.918     11.411
REMARK  Name = C:\Users\Asus\OneDrive\Рабочий стол\dz3\ligands\Lig3.pdb
REMARK  9 active torsions:
REMARK  status: ('A' for Active; 'I' for Inactive)
REMARK    1  A    between atoms: _5  and  _7
REMARK    2  A    between atoms: _5  and  _17
REMARK    3  A    between atoms: _7  and  _29
REMARK    4  A    between atoms: _9  and  _16
REMARK    5  A    between atoms: _9  and  _29
REMARK    6  A    between atoms: _10  and  _12
REMARK    7  A    between atoms: _10  and  _14
REMARK    8  A    between atoms: _14  and  _15
REMARK    9  A    between atoms: _18  and  _29
REMARK                            x       y       z     vdW  Elec       q    Type
REMARK                         _______ _______ _______ _____ _____    ______ ____
ROOT
ATOM      8  C   UNL     1      39.766 -46.342   4.420  0.00  0.00    +0.188 C 
ENDROOT
BRANCH   8   9
ATOM      9  N   UNL     1      40.443 -46.859   3.223  0.00  0.00    -0.302 N 
ATOM     10  H   UNL     1      41.118 -47.615   3.327  0.00  0.00    +0.150 HD
ATOM     11  C   UNL     1      40.360 -46.202   2.034  0.00  0.00    +0.212 C 
ATOM     12  O   UNL     1      39.600 -45.305   1.782  0.00  0.00    -0.276 OA
BRANCH  11  13
ATOM     13  C   UNL     1      41.506 -46.404   1.066  0.00  0.00    +0.076 C 
BRANCH  13  14
ATOM     14  C   UNL     1      41.498 -45.200   0.091  0.00  0.00    -0.077 C 
BRANCH  14  15
ATOM     15  N   UNL     1      41.917 -43.921   0.795  0.00  0.00    +0.378 N 
ATOM     16  H   UNL     1      41.862 -44.059   1.829  0.00  0.00    -0.090 HD
ATOM     17  H   UNL     1      41.260 -43.157   0.518  0.00  0.00    -0.090 HD
ATOM     18  H   UNL     1      42.884 -43.643   0.522  0.00  0.00    -0.090 HD
ENDBRANCH  14  15
ENDBRANCH  13  14
ENDBRANCH  11  13
ENDBRANCH   8   9
BRANCH   8  19
ATOM     19  C   UNL     1      40.831 -45.874   5.433  0.00  0.00    +0.328 C 
ATOM     20  O   UNL     1      41.599 -46.631   5.988  0.00  0.00    -0.249 OA
BRANCH  19  21
ATOM     21  O   UNL     1      40.802 -44.520   5.571  0.00  0.00    -0.467 OA
ATOM     22  C   UNL     1      39.677 -43.853   5.053  0.00  0.00    +0.280 C 
ENDBRANCH  19  21
ENDBRANCH   8  19
BRANCH   8   7
ATOM      7  C   UNL     1      38.824 -47.417   4.993  0.00  0.00    +0.090 C 
BRANCH   7   6
ATOM      1  C   UNL     1      36.845 -48.703   3.997  0.00  0.00    +0.107 A 
ATOM      2  N   UNL     1      35.910 -48.360   3.215  0.00  0.00    -0.351 N 
ATOM      3  C   UNL     1      36.070 -47.137   2.924  0.00  0.00    +0.196 A 
ATOM      4  N   UNL     1      37.089 -46.646   3.489  0.00  0.00    -0.241 NA
ATOM      5  H   UNL     1      35.141 -48.978   2.870  0.00  0.00    +0.166 HD
ATOM      6  C   UNL     1      37.585 -47.597   4.162  0.00  0.00    +0.061 A 
ENDBRANCH   7   6
ENDBRANCH   8   7
TORSDOF 8
ENDMDL
MODEL 6
REMARK VINA RESULT:      -4.6      2.550      4.099
REMARK  Name = C:\Users\Asus\OneDrive\Рабочий стол\dz3\ligands\Lig3.pdb
REMARK  9 active torsions:
REMARK  status: ('A' for Active; 'I' for Inactive)
REMARK    1  A    between atoms: _5  and  _7
REMARK    2  A    between atoms: _5  and  _17
REMARK    3  A    between atoms: _7  and  _29
REMARK    4  A    between atoms: _9  and  _16
REMARK    5  A    between atoms: _9  and  _29
REMARK    6  A    between atoms: _10  and  _12
REMARK    7  A    between atoms: _10  and  _14
REMARK    8  A    between atoms: _14  and  _15
REMARK    9  A    between atoms: _18  and  _29
REMARK                            x       y       z     vdW  Elec       q    Type
REMARK                         _______ _______ _______ _____ _____    ______ ____
ROOT
ATOM      8  C   UNL     1      34.622 -55.214   6.663  0.00  0.00    +0.188 C 
ENDROOT
BRANCH   8   9
ATOM      9  N   UNL     1      35.186 -53.943   7.138  0.00  0.00    -0.302 N 
ATOM     10  H   UNL     1      34.552 -53.181   7.375  0.00  0.00    +0.150 HD
ATOM     11  C   UNL     1      36.521 -53.692   7.046  0.00  0.00    +0.212 C 
ATOM     12  O   UNL     1      37.368 -54.505   6.787  0.00  0.00    -0.276 OA
BRANCH  11  13
ATOM     13  C   UNL     1      36.933 -52.238   6.960  0.00  0.00    +0.076 C 
BRANCH  13  14
ATOM     14  C   UNL     1      36.379 -51.685   5.623  0.00  0.00    -0.077 C 
BRANCH  14  15
ATOM     15  N   UNL     1      36.701 -52.619   4.468  0.00  0.00    +0.378 N 
ATOM     16  H   UNL     1      35.923 -52.592   3.772  0.00  0.00    -0.090 HD
ATOM     17  H   UNL     1      36.791 -53.591   4.841  0.00  0.00    -0.090 HD
ATOM     18  H   UNL     1      37.599 -52.353   4.012  0.00  0.00    -0.090 HD
ENDBRANCH  14  15
ENDBRANCH  13  14
ENDBRANCH  11  13
ENDBRANCH   8   9
BRANCH   8  19
ATOM     19  C   UNL     1      34.114 -55.025   5.218  0.00  0.00    +0.328 C 
ATOM     20  O   UNL     1      34.850 -54.978   4.256  0.00  0.00    -0.249 OA
BRANCH  19  21
ATOM     21  O   UNL     1      32.755 -54.961   5.191  0.00  0.00    -0.467 OA
ATOM     22  C   UNL     1      32.177 -54.175   4.176  0.00  0.00    +0.280 C 
ENDBRANCH  19  21
ENDBRANCH   8  19
BRANCH   8   7
ATOM      7  C   UNL     1      33.521 -55.690   7.629  0.00  0.00    +0.090 C 
BRANCH   7   6
ATOM      1  C   UNL     1      32.918 -58.111   7.045  0.00  0.00    +0.107 A 
ATOM      2  N   UNL     1      33.204 -59.218   7.589  0.00  0.00    -0.351 N 
ATOM      3  C   UNL     1      33.922 -58.982   8.605  0.00  0.00    +0.196 A 
ATOM      4  N   UNL     1      34.128 -57.744   8.762  0.00  0.00    -0.241 NA
ATOM      5  H   UNL     1      32.900 -60.161   7.256  0.00  0.00    +0.166 HD
ATOM      6  C   UNL     1      33.518 -57.183   7.804  0.00  0.00    +0.061 A 
ENDBRANCH   7   6
ENDBRANCH   8   7
TORSDOF 8
ENDMDL
MODEL 7
REMARK VINA RESULT:      -4.5     11.291     13.756
REMARK  Name = C:\Users\Asus\OneDrive\Рабочий стол\dz3\ligands\Lig3.pdb
REMARK  9 active torsions:
REMARK  status: ('A' for Active; 'I' for Inactive)
REMARK    1  A    between atoms: _5  and  _7
REMARK    2  A    between atoms: _5  and  _17
REMARK    3  A    between atoms: _7  and  _29
REMARK    4  A    between atoms: _9  and  _16
REMARK    5  A    between atoms: _9  and  _29
REMARK    6  A    between atoms: _10  and  _12
REMARK    7  A    between atoms: _10  and  _14
REMARK    8  A    between atoms: _14  and  _15
REMARK    9  A    between atoms: _18  and  _29
REMARK                            x       y       z     vdW  Elec       q    Type
REMARK                         _______ _______ _______ _____ _____    ______ ____
ROOT
ATOM      8  C   UNL     1      39.544 -43.929   3.130  0.00  0.00    +0.188 C 
ENDROOT
BRANCH   8   9
ATOM      9  N   UNL     1      40.416 -44.839   2.375  0.00  0.00    -0.302 N 
ATOM     10  H   UNL     1      41.100 -45.399   2.881  0.00  0.00    +0.150 HD
ATOM     11  C   UNL     1      40.485 -44.773   1.016  0.00  0.00    +0.212 C 
ATOM     12  O   UNL     1      39.733 -44.160   0.307  0.00  0.00    -0.276 OA
BRANCH  11  13
ATOM     13  C   UNL     1      41.772 -45.251   0.379  0.00  0.00    +0.076 C 
BRANCH  13  14
ATOM     14  C   UNL     1      42.364 -44.055  -0.407  0.00  0.00    -0.077 C 
BRANCH  14  15
ATOM     15  N   UNL     1      42.549 -42.845   0.493  0.00  0.00    +0.378 N 
ATOM     16  H   UNL     1      43.350 -43.013   1.141  0.00  0.00    -0.090 HD
ATOM     17  H   UNL     1      41.678 -42.711   1.055  0.00  0.00    -0.090 HD
ATOM     18  H   UNL     1      42.717 -41.983  -0.069  0.00  0.00    -0.090 HD
ENDBRANCH  14  15
ENDBRANCH  13  14
ENDBRANCH  11  13
ENDBRANCH   8   9
BRANCH   8  19
ATOM     19  C   UNL     1      40.400 -42.788   3.717  0.00  0.00    +0.328 C 
ATOM     20  O   UNL     1      41.525 -42.537   3.336  0.00  0.00    -0.249 OA
BRANCH  19  21
ATOM     21  O   UNL     1      39.707 -42.105   4.667  0.00  0.00    -0.467 OA
ATOM     22  C   UNL     1      38.977 -40.981   4.237  0.00  0.00    +0.280 C 
ENDBRANCH  19  21
ENDBRANCH   8  19
BRANCH   8   7
ATOM      7  C   UNL     1      38.776 -44.718   4.208  0.00  0.00    +0.090 C 
BRANCH   7   6
ATOM      1  C   UNL     1      39.335 -47.136   4.842  0.00  0.00    +0.107 A 
ATOM      2  N   UNL     1      40.319 -47.656   5.446  0.00  0.00    -0.351 N 
ATOM      3  C   UNL     1      41.123 -46.727   5.758  0.00  0.00    +0.196 A 
ATOM      4  N   UNL     1      40.706 -45.594   5.381  0.00  0.00    -0.241 NA
ATOM      5  H   UNL     1      40.446 -48.673   5.650  0.00  0.00    +0.166 HD
ATOM      6  C   UNL     1      39.600 -45.822   4.807  0.00  0.00    +0.061 A 
ENDBRANCH   7   6
ENDBRANCH   8   7
TORSDOF 8
ENDMDL
MODEL 8
REMARK VINA RESULT:      -4.5     24.738     26.332
REMARK  Name = C:\Users\Asus\OneDrive\Рабочий стол\dz3\ligands\Lig3.pdb
REMARK  9 active torsions:
REMARK  status: ('A' for Active; 'I' for Inactive)
REMARK    1  A    between atoms: _5  and  _7
REMARK    2  A    between atoms: _5  and  _17
REMARK    3  A    between atoms: _7  and  _29
REMARK    4  A    between atoms: _9  and  _16
REMARK    5  A    between atoms: _9  and  _29
REMARK    6  A    between atoms: _10  and  _12
REMARK    7  A    between atoms: _10  and  _14
REMARK    8  A    between atoms: _14  and  _15
REMARK    9  A    between atoms: _18  and  _29
REMARK                            x       y       z     vdW  Elec       q    Type
REMARK                         _______ _______ _______ _____ _____    ______ ____
ROOT
ATOM      8  C   UNL     1      45.873 -35.728  -6.465  0.00  0.00    +0.188 C 
ENDROOT
BRANCH   8   9
ATOM      9  N   UNL     1      46.577 -34.606  -5.828  0.00  0.00    -0.302 N 
ATOM     10  H   UNL     1      47.217 -34.799  -5.060  0.00  0.00    +0.150 HD
ATOM     11  C   UNL     1      46.217 -33.319  -6.086  0.00  0.00    +0.212 C 
ATOM     12  O   UNL     1      45.481 -32.961  -6.968  0.00  0.00    -0.276 OA
BRANCH  11  13
ATOM     13  C   UNL     1      46.516 -32.302  -5.005  0.00  0.00    +0.076 C 
BRANCH  13  14
ATOM     14  C   UNL     1      45.175 -31.617  -4.640  0.00  0.00    -0.077 C 
BRANCH  14  15
ATOM     15  N   UNL     1      44.127 -32.641  -4.241  0.00  0.00    +0.378 N 
ATOM     16  H   UNL     1      43.198 -32.356  -4.623  0.00  0.00    -0.090 HD
ATOM     17  H   UNL     1      44.071 -32.673  -3.198  0.00  0.00    -0.090 HD
ATOM     18  H   UNL     1      44.380 -33.591  -4.589  0.00  0.00    -0.090 HD
ENDBRANCH  14  15
ENDBRANCH  13  14
ENDBRANCH  11  13
ENDBRANCH   8   9
BRANCH   8  19
ATOM     19  C   UNL     1      44.852 -36.309  -5.465  0.00  0.00    +0.328 C 
ATOM     20  O   UNL     1      45.022 -37.353  -4.872  0.00  0.00    -0.249 OA
BRANCH  19  21
ATOM     21  O   UNL     1      43.785 -35.475  -5.328  0.00  0.00    -0.467 OA
ATOM     22  C   UNL     1      42.912 -35.375  -6.428  0.00  0.00    +0.280 C 
ENDBRANCH  19  21
ENDBRANCH   8  19
BRANCH   8   7
ATOM      7  C   UNL     1      46.893 -36.773  -6.956  0.00  0.00    +0.090 C 
BRANCH   7   6
ATOM      1  C   UNL     1      46.592 -37.189  -9.466  0.00  0.00    +0.107 A 
ATOM      2  N   UNL     1      46.016 -38.110 -10.117  0.00  0.00    -0.351 N 
ATOM      3  C   UNL     1      45.524 -38.929  -9.285  0.00  0.00    +0.196 A 
ATOM      4  N   UNL     1      45.753 -38.585  -8.090  0.00  0.00    -0.241 NA
ATOM      5  H   UNL     1      45.957 -38.181 -11.158  0.00  0.00    +0.166 HD
ATOM      6  C   UNL     1      46.417 -37.510  -8.176  0.00  0.00    +0.061 A 
ENDBRANCH   7   6
ENDBRANCH   8   7
TORSDOF 8
ENDMDL
MODEL 9
REMARK VINA RESULT:      -4.4      3.076      4.391
REMARK  Name = C:\Users\Asus\OneDrive\Рабочий стол\dz3\ligands\Lig3.pdb
REMARK  9 active torsions:
REMARK  status: ('A' for Active; 'I' for Inactive)
REMARK    1  A    between atoms: _5  and  _7
REMARK    2  A    between atoms: _5  and  _17
REMARK    3  A    between atoms: _7  and  _29
REMARK    4  A    between atoms: _9  and  _16
REMARK    5  A    between atoms: _9  and  _29
REMARK    6  A    between atoms: _10  and  _12
REMARK    7  A    between atoms: _10  and  _14
REMARK    8  A    between atoms: _14  and  _15
REMARK    9  A    between atoms: _18  and  _29
REMARK                            x       y       z     vdW  Elec       q    Type
REMARK                         _______ _______ _______ _____ _____    ______ ____
ROOT
ATOM      8  C   UNL     1      33.899 -53.533   4.106  0.00  0.00    +0.188 C 
ENDROOT
BRANCH   8   9
ATOM      9  N   UNL     1      34.617 -53.205   5.345  0.00  0.00    -0.302 N 
ATOM     10  H   UNL     1      34.100 -53.178   6.222  0.00  0.00    +0.150 HD
ATOM     11  C   UNL     1      35.888 -52.716   5.308  0.00  0.00    +0.212 C 
ATOM     12  O   UNL     1      36.603 -52.701   4.342  0.00  0.00    -0.276 OA
BRANCH  11  13
ATOM     13  C   UNL     1      36.317 -51.855   6.477  0.00  0.00    +0.076 C 
BRANCH  13  14
ATOM     14  C   UNL     1      37.683 -52.397   6.966  0.00  0.00    -0.077 C 
BRANCH  14  15
ATOM     15  N   UNL     1      37.747 -53.910   6.845  0.00  0.00    +0.378 N 
ATOM     16  H   UNL     1      37.503 -54.192   5.869  0.00  0.00    -0.090 HD
ATOM     17  H   UNL     1      37.050 -54.328   7.503  0.00  0.00    -0.090 HD
ATOM     18  H   UNL     1      38.694 -54.266   7.095  0.00  0.00    -0.090 HD
ENDBRANCH  14  15
ENDBRANCH  13  14
ENDBRANCH  11  13
ENDBRANCH   8   9
BRANCH   8  19
ATOM     19  C   UNL     1      32.474 -52.945   4.185  0.00  0.00    +0.328 C 
ATOM     20  O   UNL     1      32.182 -52.002   4.889  0.00  0.00    -0.249 OA
BRANCH  19  21
ATOM     21  O   UNL     1      31.635 -53.604   3.341  0.00  0.00    -0.467 OA
ATOM     22  C   UNL     1      30.595 -52.851   2.764  0.00  0.00    +0.280 C 
ENDBRANCH  19  21
ENDBRANCH   8  19
BRANCH   8   7
ATOM      7  C   UNL     1      33.908 -55.057   3.886  0.00  0.00    +0.090 C 
BRANCH   7   6
ATOM      1  C   UNL     1      32.665 -56.366   5.704  0.00  0.00    +0.107 A 
ATOM      2  N   UNL     1      33.050 -56.905   6.783  0.00  0.00    -0.351 N 
ATOM      3  C   UNL     1      34.295 -56.704   6.900  0.00  0.00    +0.196 A 
ATOM      4  N   UNL     1      34.761 -56.043   5.928  0.00  0.00    -0.241 NA
ATOM      5  H   UNL     1      32.445 -57.426   7.459  0.00  0.00    +0.166 HD
ATOM      6  C   UNL     1      33.769 -55.824   5.171  0.00  0.00    +0.061 A 
ENDBRANCH   7   6
ENDBRANCH   8   7
TORSDOF 8
ENDMDL
