REMARK  Name = C:\Users\Asus\OneDrive\Рабочий стол\dz3\ligands\Lig1.pdb
REMARK  15 active torsions:
REMARK  status: ('A' for Active; 'I' for Inactive)
REMARK    1  A    between atoms: _1  and  _6
REMARK    2  A    between atoms: _2  and  _3
REMARK    3  A    between atoms: _2  and  _9
REMARK    4  A    between atoms: _3  and  _4
REMARK    5  A    between atoms: _4  and  _13
REMARK    6  A    between atoms: _4  and  _14
REMARK    7  A    between atoms: _8  and  _15
REMARK    8  A    between atoms: _10  and  _12
REMARK    9  A    between atoms: _15  and  _16
REMARK   10  A    between atoms: _16  and  _17
REMARK   11  A    between atoms: _17  and  _18
REMARK   12  A    between atoms: _17  and  _19
REMARK   13  A    between atoms: _18  and  _22
REMARK   14  A    between atoms: _19  and  _20
REMARK   15  A    between atoms: _20  and  _27
REMARK                            x       y       z     vdW  Elec       q    Type
REMARK                         _______ _______ _______ _____ _____    ______ ____
ROOT
ATOM      3  C   UNL     1      -3.383   0.732   0.611  0.00  0.00    +0.142 A 
ATOM      4  C   UNL     1      -4.504   0.673  -0.134  0.00  0.00    +0.080 A 
ATOM      5  N   UNL     1      -4.493   0.733  -1.398  0.00  0.00    -0.256 NA
ATOM      6  C   UNL     1      -3.382   0.842  -1.989  0.00  0.00    +0.117 A 
ATOM      7  C   UNL     1      -2.192   0.913  -1.370  0.00  0.00    +0.005 A 
ATOM     16  C   UNL     1      -5.872   0.527   0.491  0.00  0.00    +0.069 C 
ATOM     17  C   UNL     1      -2.200   0.866  -0.022  0.00  0.00    +0.016 A 
ENDROOT
BRANCH   3   1
ATOM      1  O   UNL     1      -3.448   0.652   1.968  0.00  0.00    -0.505 OA
ATOM      2  H   UNL     1      -4.371   0.555   2.252  0.00  0.00    +0.292 HD
ENDBRANCH   3   1
BRANCH   7   8
ATOM      8  C   UNL     1      -0.914   1.012  -2.180  0.00  0.00    +0.209 C 
BRANCH   8   9
ATOM      9  O   UNL     1      -0.396   2.329  -2.135  0.00  0.00    -0.282 OA
BRANCH   9  10
ATOM     10  P   UNL     1       1.140   2.612  -2.583  0.00  0.00    +0.473 P 
ATOM     11  O   UNL     1       1.917   1.382  -2.883  0.00  0.00    -0.228 OA
BRANCH  10  12
ATOM     12  O   UNL     1       1.743   3.001  -1.114  0.00  0.00    -0.303 OA
ATOM     13  H   UNL     1       2.267   2.284  -0.796  0.00  0.00    +0.222 HD
ENDBRANCH  10  12
BRANCH  10  14
ATOM     14  O   UNL     1       1.416   3.804  -3.599  0.00  0.00    -0.303 OA
ATOM     15  H   UNL     1       0.710   4.425  -3.553  0.00  0.00    +0.222 HD
ENDBRANCH  10  14
ENDBRANCH   9  10
ENDBRANCH   8   9
ENDBRANCH   7   8
BRANCH  17  18
ATOM     18  C   UNL     1      -0.929   0.950   0.797  0.00  0.00    +0.121 C 
BRANCH  18  19
ATOM     19  N   UNL     1      -0.498  -0.401   1.148  0.00  0.00    -0.300 NA
ATOM     20  H   UNL     1      -1.188  -0.780   1.843  0.00  0.00    +0.123 HD
BRANCH  19  21
ATOM     21  C   UNL     1       0.863  -0.485   1.686  0.00  0.00    +0.170 C 
BRANCH  21  22
ATOM     22  C   UNL     1       1.867  -0.347   0.542  0.00  0.00    +0.324 C 
ATOM     23  O   UNL     1       2.348   0.703   0.180  0.00  0.00    -0.249 OA
BRANCH  22  24
ATOM     24  O   UNL     1       2.122  -1.560  -0.025  0.00  0.00    -0.467 OA
ATOM     25  C   UNL     1       3.034  -1.593  -1.096  0.00  0.00    +0.280 C 
ENDBRANCH  22  24
ENDBRANCH  21  22
BRANCH  21  26
ATOM     26  C   UNL     1       0.994  -1.799   2.481  0.00  0.00    +0.087 C 
BRANCH  26  27
ATOM     27  C   UNL     1       2.365  -2.052   3.041  0.00  0.00    +0.061 A 
ATOM     28  N   UNL     1       3.277  -1.173   3.045  0.00  0.00    -0.241 NA
ATOM     29  C   UNL     1       4.276  -1.738   3.577  0.00  0.00    +0.196 A 
ATOM     30  N   UNL     1       4.029  -2.936   3.906  0.00  0.00    -0.351 N 
ATOM     31  H   UNL     1       4.696  -3.601   4.359  0.00  0.00    +0.166 HD
ATOM     32  C   UNL     1       2.829  -3.185   3.586  0.00  0.00    +0.107 A 
ENDBRANCH  26  27
ENDBRANCH  21  26
ENDBRANCH  19  21
ENDBRANCH  18  19
ENDBRANCH  17  18
TORSDOF 13
