REMARK  Name = C:\Users\Asus\OneDrive\Рабочий стол\dz3\ligands\Lig2.pdb
REMARK  14 active torsions:
REMARK  status: ('A' for Active; 'I' for Inactive)
REMARK    1  A    between atoms: _1  and  _24
REMARK    2  A    between atoms: _4  and  _15
REMARK    3  A    between atoms: _8  and  _20
REMARK    4  A    between atoms: _9  and  _19
REMARK    5  A    between atoms: _13  and  _23
REMARK    6  A    between atoms: _14  and  _15
REMARK    7  A    between atoms: _14  and  _19
REMARK    8  A    between atoms: _15  and  _17
REMARK    9  A    between atoms: _17  and  _18
REMARK   10  A    between atoms: _20  and  _21
REMARK   11  A    between atoms: _21  and  _24
REMARK   12  A    between atoms: _24  and  _25
REMARK   13  A    between atoms: _26  and  _31
REMARK   14  A    between atoms: _27  and  _32
REMARK                            x       y       z     vdW  Elec       q    Type
REMARK                         _______ _______ _______ _____ _____    ______ ____
ROOT
ATOM      9  C   UNL     1       0.902   1.907  -0.159  0.00  0.00    +0.190 C 
ATOM     10  O   UNL     1       0.105   2.894  -0.740  0.00  0.00    -0.344 OA
ATOM     11  C   UNL     1      -1.244   2.503  -0.564  0.00  0.00    +0.254 C 
ATOM     24  C   UNL     1      -1.253   1.006  -0.249  0.00  0.00    +0.207 C 
ATOM     27  C   UNL     1       0.191   0.603  -0.489  0.00  0.00    +0.240 C 
ENDROOT
BRANCH  11  12
ATOM     12  N   UNL     1      -2.072   2.798  -1.744  0.00  0.00    -0.288 N 
ATOM     13  C   UNL     1      -1.682   2.684  -2.942  0.00  0.00    +0.203 A 
ATOM     14  N   UNL     1      -2.623   3.007  -3.726  0.00  0.00    -0.235 NA
ATOM     15  C   UNL     1      -3.600   3.321  -2.979  0.00  0.00    +0.129 A 
ATOM     16  C   UNL     1      -4.837   3.733  -3.302  0.00  0.00    +0.200 C 
ATOM     20  N   UNL     1      -5.642   3.985  -2.354  0.00  0.00    -0.242 NA
ATOM     21  C   UNL     1      -5.241   3.835  -1.160  0.00  0.00    +0.206 C 
ATOM     22  N   UNL     1      -4.100   3.452  -0.763  0.00  0.00    -0.184 NA
ATOM     23  C   UNL     1      -3.271   3.194  -1.679  0.00  0.00    +0.153 A 
BRANCH  16  17
ATOM     17  N   UNL     1      -5.142   3.851  -4.527  0.00  0.00    -0.298 NA
ATOM     18  H   UNL     1      -4.436   3.629  -5.271  0.00  0.00    +0.121 HD
ATOM     19  H   UNL     1      -6.102   4.171  -4.804  0.00  0.00    +0.121 HD
ENDBRANCH  16  17
ENDBRANCH  11  12
BRANCH  24  25
ATOM     25  O   UNL     1      -1.602   0.801   1.099  0.00  0.00    -0.384 OA
ATOM     26  H   UNL     1      -1.952  -0.091   1.189  0.00  0.00    +0.210 HD
ENDBRANCH  24  25
BRANCH   9   8
ATOM      8  C   UNL     1       2.330   1.975  -0.683  0.00  0.00    +0.207 C 
BRANCH   8   7
ATOM      7  O   UNL     1       3.083   0.991  -0.020  0.00  0.00    -0.284 OA
BRANCH   7   3
ATOM      3  P   UNL     1       4.610   0.727  -0.398  0.00  0.00    +0.472 P 
ATOM      6  O   UNL     1       5.013   1.006  -1.800  0.00  0.00    -0.228 OA
BRANCH   3   1
ATOM      1  O   UNL     1       4.992  -0.848  -0.240  0.00  0.00    -0.303 OA
ATOM      2  H   UNL     1       5.255  -1.174  -1.083  0.00  0.00    +0.222 HD
ENDBRANCH   3   1
BRANCH   3   4
ATOM      4  O   UNL     1       5.734   1.231   0.640  0.00  0.00    -0.303 OA
ATOM      5  H   UNL     1       6.070   0.491   1.114  0.00  0.00    +0.222 HD
ENDBRANCH   3   4
ENDBRANCH   7   3
ENDBRANCH   8   7
ENDBRANCH   9   8
BRANCH  27  28
ATOM     28  O   UNL     1       0.742  -0.439   0.258  0.00  0.00    -0.455 OA
BRANCH  28  29
ATOM     29  C   UNL     1       0.024  -1.496   0.716  0.00  0.00    +0.325 C 
ATOM     30  O   UNL     1      -1.157  -1.681   0.542  0.00  0.00    -0.249 OA
BRANCH  29  31
ATOM     31  C   UNL     1       0.957  -2.410   1.499  0.00  0.00    +0.167 C 
BRANCH  31  39
ATOM     39  N   UNL     1       2.194  -2.624   0.728  0.00  0.00    -0.318 NA
ATOM     40  H   UNL     1       2.831  -3.268   1.228  0.00  0.00    +0.119 HD
ATOM     41  H   UNL     1       2.722  -1.739   0.628  0.00  0.00    +0.119 HD
ENDBRANCH  31  39
BRANCH  31  32
ATOM     32  C   UNL     1       0.335  -3.770   1.855  0.00  0.00    +0.086 C 
BRANCH  32  33
ATOM     33  C   UNL     1       1.288  -4.595   2.670  0.00  0.00    +0.061 A 
ATOM     34  C   UNL     1       1.457  -4.584   3.999  0.00  0.00    +0.107 A 
ATOM     35  N   UNL     1       2.364  -5.437   4.228  0.00  0.00    -0.351 N 
ATOM     36  H   UNL     1       2.750  -5.689   5.166  0.00  0.00    +0.166 HD
ATOM     37  C   UNL     1       2.717  -5.933   3.117  0.00  0.00    +0.196 A 
ATOM     38  N   UNL     1       2.077  -5.437   2.145  0.00  0.00    -0.241 NA
ENDBRANCH  32  33
ENDBRANCH  31  32
ENDBRANCH  29  31
ENDBRANCH  28  29
ENDBRANCH  27  28
TORSDOF 14
