REMARK  Name = C:\Users\Asus\OneDrive\Рабочий стол\dz3\ligands\Lig3.pdb
REMARK  9 active torsions:
REMARK  status: ('A' for Active; 'I' for Inactive)
REMARK    1  A    between atoms: _5  and  _7
REMARK    2  A    between atoms: _5  and  _17
REMARK    3  A    between atoms: _7  and  _29
REMARK    4  A    between atoms: _9  and  _16
REMARK    5  A    between atoms: _9  and  _29
REMARK    6  A    between atoms: _10  and  _12
REMARK    7  A    between atoms: _10  and  _14
REMARK    8  A    between atoms: _14  and  _15
REMARK    9  A    between atoms: _18  and  _29
REMARK                            x       y       z     vdW  Elec       q    Type
REMARK                         _______ _______ _______ _____ _____    ______ ____
ROOT
ATOM      8  C   UNL     1       0.564  -0.939  -0.280  0.00  0.00    +0.188 C 
ENDROOT
BRANCH   8   9
ATOM      9  N   UNL     1       0.074   0.437  -0.119  0.00  0.00    -0.302 N 
ATOM     10  H   UNL     1       0.683   1.129   0.314  0.00  0.00    +0.150 HD
ATOM     11  C   UNL     1      -1.238   0.740  -0.321  0.00  0.00    +0.212 C 
ATOM     12  O   UNL     1      -2.052   0.017  -0.831  0.00  0.00    -0.276 OA
BRANCH  11  13
ATOM     13  C   UNL     1      -1.778   1.943   0.423  0.00  0.00    +0.076 C 
BRANCH  13  14
ATOM     14  C   UNL     1      -2.732   1.410   1.521  0.00  0.00    -0.077 C 
BRANCH  14  15
ATOM     15  N   UNL     1      -3.557   0.241   1.010  0.00  0.00    +0.378 N 
ATOM     16  H   UNL     1      -4.046   0.518   0.130  0.00  0.00    -0.090 HD
ATOM     17  H   UNL     1      -4.271  -0.005   1.733  0.00  0.00    -0.090 HD
ATOM     18  H   UNL     1      -2.957  -0.594   0.839  0.00  0.00    -0.090 HD
ENDBRANCH  14  15
ENDBRANCH  13  14
ENDBRANCH  11  13
ENDBRANCH   8   9
BRANCH   8  19
ATOM     19  C   UNL     1      -0.225  -1.864   0.670  0.00  0.00    +0.328 C 
ATOM     20  O   UNL     1      -1.191  -1.497   1.305  0.00  0.00    -0.249 OA
BRANCH  19  21
ATOM     21  O   UNL     1       0.291  -3.123   0.654  0.00  0.00    -0.467 OA
ATOM     22  C   UNL     1      -0.360  -4.086   1.447  0.00  0.00    +0.280 C 
ENDBRANCH  19  21
ENDBRANCH   8  19
BRANCH   8   7
ATOM      7  C   UNL     1       2.084  -0.984  -0.036  0.00  0.00    +0.090 C 
BRANCH   7   6
ATOM      1  C   UNL     1       3.766  -0.202  -1.803  0.00  0.00    +0.107 A 
ATOM      2  N   UNL     1       4.090   0.947  -2.225  0.00  0.00    -0.351 N 
ATOM      3  C   UNL     1       3.404   1.805  -1.594  0.00  0.00    +0.196 A 
ATOM      4  N   UNL     1       2.625   1.265  -0.757  0.00  0.00    -0.241 NA
ATOM      5  H   UNL     1       4.800   1.151  -2.965  0.00  0.00    +0.166 HD
ATOM      6  C   UNL     1       2.829   0.020  -0.870  0.00  0.00    +0.061 A 
ENDBRANCH   7   6
ENDBRANCH   8   7
TORSDOF 8
