REMARK  Name = C:\Users\Asus\OneDrive\Рабочий стол\dz3\ligands\Lig4.pdb
REMARK  4 active torsions:
REMARK  status: ('A' for Active; 'I' for Inactive)
REMARK    1  A    between atoms: _1  and  _3
REMARK    2  A    between atoms: _1  and  _12
REMARK    3  A    between atoms: _3  and  _6
REMARK    4  A    between atoms: _14  and  _18
REMARK                            x       y       z     vdW  Elec       q    Type
REMARK                         _______ _______ _______ _____ _____    ______ ____
ROOT
ATOM      5  C   UNL     1       0.634  -0.243  -0.022  0.00  0.00    +0.093 C 
ATOM      6  C   UNL     1      -0.525   0.417  -0.198  0.00  0.00    +0.036 C 
ENDROOT
BRANCH   6   7
ATOM      7  C   UNL     1      -1.609   0.227   0.571  0.00  0.00    +0.082 A 
ATOM      8  N   UNL     1      -1.715  -0.572   1.551  0.00  0.00    -0.237 NA
ATOM      9  C   UNL     1      -2.893  -0.437   1.991  0.00  0.00    +0.197 A 
ATOM     10  N   UNL     1      -3.548   0.421   1.330  0.00  0.00    -0.350 N 
ATOM     11  H   UNL     1      -4.538   0.708   1.498  0.00  0.00    +0.166 HD
ATOM     12  C   UNL     1      -2.782   0.867   0.425  0.00  0.00    +0.111 A 
ENDBRANCH   6   7
BRANCH   5   1
ATOM      1  C   UNL     1       1.753  -0.077  -0.784  0.00  0.00    +0.332 C 
ATOM      2  O   UNL     1       1.764   0.714  -1.707  0.00  0.00    -0.246 OA
BRANCH   1   3
ATOM      3  O   UNL     1       2.872  -0.818  -0.495  0.00  0.00    -0.465 OA
ATOM      4  C   UNL     1       4.016  -0.640  -1.297  0.00  0.00    +0.280 C 
ENDBRANCH   1   3
ENDBRANCH   5   1
TORSDOF 3
