REMARK  Name = C:\Users\Asus\OneDrive\Рабочий стол\dz3\ligands\Lig5.pdb
REMARK  7 active torsions:
REMARK  status: ('A' for Active; 'I' for Inactive)
REMARK    1  A    between atoms: _1  and  _10
REMARK    2  A    between atoms: _4  and  _11
REMARK    3  A    between atoms: _4  and  _17
REMARK    4  A    between atoms: _5  and  _8
REMARK    5  A    between atoms: _8  and  _10
REMARK    6  A    between atoms: _10  and  _11
REMARK    7  A    between atoms: _23  and  _27
REMARK                            x       y       z     vdW  Elec       q    Type
REMARK                         _______ _______ _______ _____ _____    ______ ____
ROOT
ATOM      3  C   UNL     1       0.412   0.002  -0.803  0.00  0.00    +0.188 C 
ENDROOT
BRANCH   3   1
ATOM      1  N   UNL     1       0.276   0.090   0.658  0.00  0.00    -0.302 N 
ATOM      2  H   UNL     1      -0.378   0.771   1.041  0.00  0.00    +0.150 HD
ATOM     15  C   UNL     1       1.018  -0.671   1.518  0.00  0.00    +0.211 C 
ATOM     16  O   UNL     1       1.846  -1.459   1.136  0.00  0.00    -0.276 OA
ATOM     17  C   UNL     1       0.706  -0.428   2.981  0.00  0.00    +0.109 C 
ENDBRANCH   3   1
BRANCH   3   4
ATOM      4  C   UNL     1       1.636   0.751  -1.334  0.00  0.00    +0.328 C 
ATOM      5  O   UNL     1       2.000   0.707  -2.488  0.00  0.00    -0.249 OA
BRANCH   4   6
ATOM      6  O   UNL     1       2.222   1.486  -0.348  0.00  0.00    -0.467 OA
ATOM      7  C   UNL     1       3.364   2.230  -0.699  0.00  0.00    +0.280 C 
ENDBRANCH   4   6
ENDBRANCH   3   4
BRANCH   3   8
ATOM      8  C   UNL     1      -0.871   0.532  -1.469  0.00  0.00    +0.090 C 
BRANCH   8   9
ATOM      9  C   UNL     1      -2.090  -0.143  -0.911  0.00  0.00    +0.061 A 
ATOM     10  N   UNL     1      -2.553   0.149   0.232  0.00  0.00    -0.241 NA
ATOM     11  C   UNL     1      -3.562  -0.599   0.376  0.00  0.00    +0.196 A 
ATOM     12  N   UNL     1      -3.752  -1.347  -0.629  0.00  0.00    -0.351 N 
ATOM     13  H   UNL     1      -4.520  -2.047  -0.740  0.00  0.00    +0.166 HD
ATOM     14  C   UNL     1      -2.845  -1.096  -1.476  0.00  0.00    +0.107 A 
ENDBRANCH   8   9
ENDBRANCH   3   8
TORSDOF 5
