REMARK  Name = C:\Users\Asus\OneDrive\Рабочий стол\dz3\ligands\Lig6.pdb
REMARK  7 active torsions:
REMARK  status: ('A' for Active; 'I' for Inactive)
REMARK    1  A    between atoms: _1  and  _5
REMARK    2  A    between atoms: _1  and  _15
REMARK    3  A    between atoms: _5  and  _21
REMARK    4  A    between atoms: _5  and  _28
REMARK    5  A    between atoms: _13  and  _21
REMARK    6  A    between atoms: _17  and  _21
REMARK    7  A    between atoms: _21  and  _22
REMARK                            x       y       z     vdW  Elec       q    Type
REMARK                         _______ _______ _______ _____ _____    ______ ____
ROOT
ATOM      8  C   UNL     1       1.081   0.083  -0.093  0.00  0.00    +0.055 C 
ENDROOT
BRANCH   8  12
ATOM     12  N   UNL     1       0.171  -1.148   0.035  0.00  0.00    +0.384 N 
ATOM     13  C   UNL     1      -0.102  -1.650   1.452  0.00  0.00    -0.092 C 
ATOM     14  C   UNL     1      -1.210  -0.739  -0.493  0.00  0.00    -0.092 C 
ATOM     15  C   UNL     1       0.575  -2.303  -0.887  0.00  0.00    -0.092 C 
ENDBRANCH   8  12
BRANCH   8   9
ATOM      9  C   UNL     1       2.463  -0.271   0.383  0.00  0.00    +0.344 C 
ATOM     10  O   UNL     1       2.476  -1.456   0.754  0.00  0.00    -0.248 OA
ATOM     11  O   UNL     1       3.408   0.546   0.387  0.00  0.00    -0.248 OA
ENDBRANCH   8   9
BRANCH   8   1
ATOM      1  C   UNL     1       0.579   1.357   0.634  0.00  0.00    +0.053 C 
BRANCH   1   2
ATOM      2  C   UNL     1      -0.408   2.226  -0.099  0.00  0.00    +0.058 A 
ATOM      3  N   UNL     1      -1.214   2.993   0.512  0.00  0.00    -0.241 NA
ATOM      4  C   UNL     1      -1.903   3.563  -0.385  0.00  0.00    +0.196 A 
ATOM      5  N   UNL     1      -1.561   3.147  -1.531  0.00  0.00    -0.351 N 
ATOM      6  H   UNL     1      -1.986   3.456  -2.436  0.00  0.00    +0.166 HD
ATOM      7  C   UNL     1      -0.609   2.325  -1.420  0.00  0.00    +0.107 A 
ENDBRANCH   1   2
ENDBRANCH   8   1
TORSDOF 4
