REMARK  Name = C:\Users\Asus\OneDrive\Рабочий стол\dz3\ligands\Lig7.pdb
REMARK  5 active torsions:
REMARK  status: ('A' for Active; 'I' for Inactive)
REMARK    1  A    between atoms: _3  and  _7
REMARK    2  A    between atoms: _3  and  _19
REMARK    3  A    between atoms: _5  and  _18
REMARK    4  A    between atoms: _9  and  _20
REMARK    5  A    between atoms: _15  and  _16
REMARK                            x       y       z     vdW  Elec       q    Type
REMARK                         _______ _______ _______ _____ _____    ______ ____
ROOT
ATOM      4  C   UNL     1      -0.789   0.501   0.709  0.00  0.00    -0.009 C 
ATOM      5  C   UNL     1      -0.038   0.669  -0.405  0.00  0.00    +0.131 C 
ATOM      6  C   UNL     1       1.037  -0.132  -0.602  0.00  0.00    +0.129 C 
ATOM      9  C   UNL     1       1.328  -1.082   0.311  0.00  0.00    +0.044 C 
ATOM     10  N   UNL     1       0.600  -1.264   1.380  0.00  0.00    -0.321 N 
ATOM     11  H   UNL     1       0.822  -1.994   2.070  0.00  0.00    +0.151 HD
ATOM     12  C   UNL     1       2.513  -2.006   0.133  0.00  0.00    +0.064 C 
ATOM     15  C   UNL     1      -0.423  -0.478   1.556  0.00  0.00    +0.075 C 
ENDROOT
BRANCH   6   7
ATOM      7  O   UNL     1       1.828  -0.013  -1.710  0.00  0.00    -0.508 OA
ATOM      8  H   UNL     1       2.589  -0.612  -1.658  0.00  0.00    +0.292 HD
ENDBRANCH   6   7
BRANCH   5  13
ATOM     13  C   UNL     1      -0.329   1.612  -1.349  0.00  0.00    +0.244 C 
ATOM     14  O   UNL     1      -1.240   2.408  -1.344  0.00  0.00    -0.300 OA
ENDBRANCH   5  13
BRANCH   4   3
ATOM      3  C   UNL     1      -2.034   1.298   1.057  0.00  0.00    +0.189 C 
BRANCH   3   2
ATOM      1  H   UNL     1      -2.836   1.613  -0.690  0.00  0.00    +0.210 HD
ATOM      2  O   UNL     1      -3.026   1.056   0.067  0.00  0.00    -0.391 OA
ENDBRANCH   3   2
ENDBRANCH   4   3
TORSDOF 4
