MODEL 1
REMARK VINA RESULT:      -4.8      0.000      0.000
REMARK  Name = C:\Users\Asus\OneDrive\Рабочий стол\dz3\ligands\Lig5.pdb
REMARK  7 active torsions:
REMARK  status: ('A' for Active; 'I' for Inactive)
REMARK    1  A    between atoms: _1  and  _10
REMARK    2  A    between atoms: _4  and  _11
REMARK    3  A    between atoms: _4  and  _17
REMARK    4  A    between atoms: _5  and  _8
REMARK    5  A    between atoms: _8  and  _10
REMARK    6  A    between atoms: _10  and  _11
REMARK    7  A    between atoms: _23  and  _27
REMARK                            x       y       z     vdW  Elec       q    Type
REMARK                         _______ _______ _______ _____ _____    ______ ____
ROOT
ATOM      3  C   UNL     1      39.867 -46.211   4.403  0.00  0.00    +0.188 C 
ENDROOT
BRANCH   3   1
ATOM      1  N   UNL     1      40.527 -46.665   3.171  0.00  0.00    -0.302 N 
ATOM      2  H   UNL     1      40.970 -47.583   3.171  0.00  0.00    +0.150 HD
ATOM     15  C   UNL     1      40.607 -45.893   2.045  0.00  0.00    +0.211 C 
ATOM     16  O   UNL     1      40.151 -44.779   1.990  0.00  0.00    -0.276 OA
ATOM     17  C   UNL     1      41.319 -46.564   0.888  0.00  0.00    +0.109 C 
ENDBRANCH   3   1
BRANCH   3   4
ATOM      4  C   UNL     1      40.857 -45.769   5.482  0.00  0.00    +0.328 C 
ATOM      5  O   UNL     1      41.572 -46.535   6.089  0.00  0.00    -0.249 OA
BRANCH   4   6
ATOM      6  O   UNL     1      40.842 -44.415   5.631  0.00  0.00    -0.467 OA
ATOM      7  C   UNL     1      39.656 -43.746   5.276  0.00  0.00    +0.280 C 
ENDBRANCH   4   6
ENDBRANCH   3   4
BRANCH   3   8
ATOM      8  C   UNL     1      38.955 -47.331   4.938  0.00  0.00    +0.090 C 
BRANCH   8   9
ATOM      9  C   UNL     1      37.712 -47.461   4.107  0.00  0.00    +0.061 A 
ATOM     10  N   UNL     1      37.284 -46.509   3.389  0.00  0.00    -0.241 NA
ATOM     11  C   UNL     1      36.238 -46.959   2.840  0.00  0.00    +0.196 A 
ATOM     12  N   UNL     1      35.992 -48.154   3.183  0.00  0.00    -0.351 N 
ATOM     13  H   UNL     1      35.185 -48.734   2.861  0.00  0.00    +0.166 HD
ATOM     14  C   UNL     1      36.900 -48.521   3.986  0.00  0.00    +0.107 A 
ENDBRANCH   8   9
ENDBRANCH   3   8
TORSDOF 5
ENDMDL
MODEL 2
REMARK VINA RESULT:      -4.7      1.827      3.966
REMARK  Name = C:\Users\Asus\OneDrive\Рабочий стол\dz3\ligands\Lig5.pdb
REMARK  7 active torsions:
REMARK  status: ('A' for Active; 'I' for Inactive)
REMARK    1  A    between atoms: _1  and  _10
REMARK    2  A    between atoms: _4  and  _11
REMARK    3  A    between atoms: _4  and  _17
REMARK    4  A    between atoms: _5  and  _8
REMARK    5  A    between atoms: _8  and  _10
REMARK    6  A    between atoms: _10  and  _11
REMARK    7  A    between atoms: _23  and  _27
REMARK                            x       y       z     vdW  Elec       q    Type
REMARK                         _______ _______ _______ _____ _____    ______ ____
ROOT
ATOM      3  C   UNL     1      39.635 -45.890   4.433  0.00  0.00    +0.188 C 
ENDROOT
BRANCH   3   1
ATOM      1  N   UNL     1      38.253 -45.936   4.932  0.00  0.00    -0.302 N 
ATOM      2  H   UNL     1      37.941 -45.195   5.558  0.00  0.00    +0.150 HD
ATOM     15  C   UNL     1      37.388 -46.950   4.626  0.00  0.00    +0.211 C 
ATOM     16  O   UNL     1      37.705 -47.885   3.935  0.00  0.00    -0.276 OA
ATOM     17  C   UNL     1      36.010 -46.790   5.237  0.00  0.00    +0.109 C 
ENDBRANCH   3   1
BRANCH   3   4
ATOM      4  C   UNL     1      40.636 -45.422   5.491  0.00  0.00    +0.328 C 
ATOM      5  O   UNL     1      41.090 -46.145   6.350  0.00  0.00    -0.249 OA
BRANCH   4   6
ATOM      6  O   UNL     1      40.961 -44.112   5.308  0.00  0.00    -0.467 OA
ATOM      7  C   UNL     1      40.485 -43.196   6.265  0.00  0.00    +0.280 C 
ENDBRANCH   4   6
ENDBRANCH   3   4
BRANCH   3   8
ATOM      8  C   UNL     1      39.700 -44.979   3.194  0.00  0.00    +0.090 C 
BRANCH   8   9
ATOM      9  C   UNL     1      40.483 -45.624   2.087  0.00  0.00    +0.061 A 
ATOM     10  N   UNL     1      41.012 -44.946   1.157  0.00  0.00    -0.241 NA
ATOM     11  C   UNL     1      41.580 -45.797   0.415  0.00  0.00    +0.196 A 
ATOM     12  N   UNL     1      41.430 -46.981   0.840  0.00  0.00    -0.351 N 
ATOM     13  H   UNL     1      41.806 -47.848   0.395  0.00  0.00    +0.166 HD
ATOM     14  C   UNL     1      40.741 -46.927   1.901  0.00  0.00    +0.107 A 
ENDBRANCH   8   9
ENDBRANCH   3   8
TORSDOF 5
ENDMDL
MODEL 3
REMARK VINA RESULT:      -4.5      8.748     10.903
REMARK  Name = C:\Users\Asus\OneDrive\Рабочий стол\dz3\ligands\Lig5.pdb
REMARK  7 active torsions:
REMARK  status: ('A' for Active; 'I' for Inactive)
REMARK    1  A    between atoms: _1  and  _10
REMARK    2  A    between atoms: _4  and  _11
REMARK    3  A    between atoms: _4  and  _17
REMARK    4  A    between atoms: _5  and  _8
REMARK    5  A    between atoms: _8  and  _10
REMARK    6  A    between atoms: _10  and  _11
REMARK    7  A    between atoms: _23  and  _27
REMARK                            x       y       z     vdW  Elec       q    Type
REMARK                         _______ _______ _______ _____ _____    ______ ____
ROOT
ATOM      3  C   UNL     1      34.753 -55.696   6.326  0.00  0.00    +0.188 C 
ENDROOT
BRANCH   3   1
ATOM      1  N   UNL     1      33.835 -54.870   5.529  0.00  0.00    -0.302 N 
ATOM      2  H   UNL     1      33.166 -54.280   6.022  0.00  0.00    +0.150 HD
ATOM     15  C   UNL     1      33.813 -54.895   4.162  0.00  0.00    +0.211 C 
ATOM     16  O   UNL     1      34.540 -55.608   3.516  0.00  0.00    -0.276 OA
ATOM     17  C   UNL     1      32.797 -53.956   3.545  0.00  0.00    +0.109 C 
ENDBRANCH   3   1
BRANCH   3   4
ATOM      4  C   UNL     1      34.130 -57.020   6.772  0.00  0.00    +0.328 C 
ATOM      5  O   UNL     1      33.633 -57.817   6.008  0.00  0.00    -0.249 OA
BRANCH   4   6
ATOM      6  O   UNL     1      34.247 -57.184   8.119  0.00  0.00    -0.467 OA
ATOM      7  C   UNL     1      33.969 -58.464   8.633  0.00  0.00    +0.280 C 
ENDBRANCH   4   6
ENDBRANCH   3   4
BRANCH   3   8
ATOM      8  C   UNL     1      35.233 -54.891   7.549  0.00  0.00    +0.090 C 
BRANCH   8   9
ATOM      9  C   UNL     1      36.137 -53.766   7.136  0.00  0.00    +0.061 A 
ATOM     10  N   UNL     1      35.682 -52.669   6.694  0.00  0.00    -0.241 NA
ATOM     11  C   UNL     1      36.704 -51.967   6.449  0.00  0.00    +0.196 A 
ATOM     12  N   UNL     1      37.782 -52.577   6.720  0.00  0.00    -0.351 N 
ATOM     13  H   UNL     1      38.750 -52.202   6.600  0.00  0.00    +0.166 HD
ATOM     14  C   UNL     1      37.477 -53.724   7.161  0.00  0.00    +0.107 A 
ENDBRANCH   8   9
ENDBRANCH   3   8
TORSDOF 5
ENDMDL
MODEL 4
REMARK VINA RESULT:      -4.5      9.324     11.494
REMARK  Name = C:\Users\Asus\OneDrive\Рабочий стол\dz3\ligands\Lig5.pdb
REMARK  7 active torsions:
REMARK  status: ('A' for Active; 'I' for Inactive)
REMARK    1  A    between atoms: _1  and  _10
REMARK    2  A    between atoms: _4  and  _11
REMARK    3  A    between atoms: _4  and  _17
REMARK    4  A    between atoms: _5  and  _8
REMARK    5  A    between atoms: _8  and  _10
REMARK    6  A    between atoms: _10  and  _11
REMARK    7  A    between atoms: _23  and  _27
REMARK                            x       y       z     vdW  Elec       q    Type
REMARK                         _______ _______ _______ _____ _____    ______ ____
ROOT
ATOM      3  C   UNL     1      34.199 -56.131   6.777  0.00  0.00    +0.188 C 
ENDROOT
BRANCH   3   1
ATOM      1  N   UNL     1      35.502 -55.462   6.654  0.00  0.00    -0.302 N 
ATOM      2  H   UNL     1      36.242 -55.937   6.139  0.00  0.00    +0.150 HD
ATOM     15  C   UNL     1      35.772 -54.254   7.235  0.00  0.00    +0.211 C 
ATOM     16  O   UNL     1      34.961 -53.660   7.900  0.00  0.00    -0.276 OA
ATOM     17  C   UNL     1      37.173 -53.742   6.968  0.00  0.00    +0.109 C 
ENDBRANCH   3   1
BRANCH   3   4
ATOM      4  C   UNL     1      34.123 -57.070   7.982  0.00  0.00    +0.328 C 
ATOM      5  O   UNL     1      34.133 -56.688   9.131  0.00  0.00    -0.249 OA
BRANCH   4   6
ATOM      6  O   UNL     1      34.010 -58.368   7.582  0.00  0.00    -0.467 OA
ATOM      7  C   UNL     1      33.430 -59.269   8.493  0.00  0.00    +0.280 C 
ENDBRANCH   4   6
ENDBRANCH   3   4
BRANCH   3   8
ATOM      8  C   UNL     1      33.894 -56.900   5.478  0.00  0.00    +0.090 C 
BRANCH   8   9
ATOM      9  C   UNL     1      33.600 -55.958   4.347  0.00  0.00    +0.061 A 
ATOM     10  N   UNL     1      33.399 -54.722   4.540  0.00  0.00    -0.241 NA
ATOM     11  C   UNL     1      33.185 -54.243   3.390  0.00  0.00    +0.196 A 
ATOM     12  N   UNL     1      33.244 -55.127   2.484  0.00  0.00    -0.351 N 
ATOM     13  H   UNL     1      33.101 -54.971   1.460  0.00  0.00    +0.166 HD
ATOM     14  C   UNL     1      33.506 -56.234   3.038  0.00  0.00    +0.107 A 
ENDBRANCH   8   9
ENDBRANCH   3   8
TORSDOF 5
ENDMDL
MODEL 5
REMARK VINA RESULT:      -4.5      7.479      9.481
REMARK  Name = C:\Users\Asus\OneDrive\Рабочий стол\dz3\ligands\Lig5.pdb
REMARK  7 active torsions:
REMARK  status: ('A' for Active; 'I' for Inactive)
REMARK    1  A    between atoms: _1  and  _10
REMARK    2  A    between atoms: _4  and  _11
REMARK    3  A    between atoms: _4  and  _17
REMARK    4  A    between atoms: _5  and  _8
REMARK    5  A    between atoms: _8  and  _10
REMARK    6  A    between atoms: _10  and  _11
REMARK    7  A    between atoms: _23  and  _27
REMARK                            x       y       z     vdW  Elec       q    Type
REMARK                         _______ _______ _______ _____ _____    ______ ____
ROOT
ATOM      3  C   UNL     1      34.782 -54.281   6.154  0.00  0.00    +0.188 C 
ENDROOT
BRANCH   3   1
ATOM      1  N   UNL     1      35.238 -53.372   5.094  0.00  0.00    -0.302 N 
ATOM      2  H   UNL     1      35.675 -53.776   4.267  0.00  0.00    +0.150 HD
ATOM     15  C   UNL     1      35.139 -52.012   5.191  0.00  0.00    +0.211 C 
ATOM     16  O   UNL     1      34.680 -51.463   6.161  0.00  0.00    -0.276 OA
ATOM     17  C   UNL     1      35.658 -51.268   3.977  0.00  0.00    +0.109 C 
ENDBRANCH   3   1
BRANCH   3   4
ATOM      4  C   UNL     1      35.844 -54.526   7.228  0.00  0.00    +0.328 C 
ATOM      5  O   UNL     1      37.032 -54.386   7.040  0.00  0.00    -0.249 OA
BRANCH   4   6
ATOM      6  O   UNL     1      35.267 -54.882   8.410  0.00  0.00    -0.467 OA
ATOM      7  C   UNL     1      34.356 -53.971   8.976  0.00  0.00    +0.280 C 
ENDBRANCH   4   6
ENDBRANCH   3   4
BRANCH   3   8
ATOM      8  C   UNL     1      34.336 -55.615   5.528  0.00  0.00    +0.090 C 
BRANCH   8   9
ATOM      9  C   UNL     1      33.583 -55.389   4.249  0.00  0.00    +0.061 A 
ATOM     10  N   UNL     1      32.662 -54.523   4.159  0.00  0.00    -0.241 NA
ATOM     11  C   UNL     1      32.254 -54.603   2.965  0.00  0.00    +0.196 A 
ATOM     12  N   UNL     1      32.881 -55.482   2.302  0.00  0.00    -0.351 N 
ATOM     13  H   UNL     1      32.721 -55.729   1.300  0.00  0.00    +0.166 HD
ATOM     14  C   UNL     1      33.738 -56.010   3.071  0.00  0.00    +0.107 A 
ENDBRANCH   8   9
ENDBRANCH   3   8
TORSDOF 5
ENDMDL
MODEL 6
REMARK VINA RESULT:      -4.4     14.688     17.022
REMARK  Name = C:\Users\Asus\OneDrive\Рабочий стол\dz3\ligands\Lig5.pdb
REMARK  7 active torsions:
REMARK  status: ('A' for Active; 'I' for Inactive)
REMARK    1  A    between atoms: _1  and  _10
REMARK    2  A    between atoms: _4  and  _11
REMARK    3  A    between atoms: _4  and  _17
REMARK    4  A    between atoms: _5  and  _8
REMARK    5  A    between atoms: _8  and  _10
REMARK    6  A    between atoms: _10  and  _11
REMARK    7  A    between atoms: _23  and  _27
REMARK                            x       y       z     vdW  Elec       q    Type
REMARK                         _______ _______ _______ _____ _____    ______ ____
ROOT
ATOM      3  C   UNL     1      45.695 -35.611  -6.281  0.00  0.00    +0.188 C 
ENDROOT
BRANCH   3   1
ATOM      1  N   UNL     1      46.359 -34.406  -5.764  0.00  0.00    -0.302 N 
ATOM      2  H   UNL     1      47.064 -34.519  -5.037  0.00  0.00    +0.150 HD
ATOM     15  C   UNL     1      46.040 -33.145  -6.186  0.00  0.00    +0.211 C 
ATOM     16  O   UNL     1      45.181 -32.934  -7.004  0.00  0.00    -0.276 OA
ATOM     17  C   UNL     1      46.858 -32.051  -5.530  0.00  0.00    +0.109 C 
ENDBRANCH   3   1
BRANCH   3   4
ATOM      4  C   UNL     1      44.475 -36.021  -5.454  0.00  0.00    +0.328 C 
ATOM      5  O   UNL     1      43.422 -35.424  -5.470  0.00  0.00    -0.249 OA
BRANCH   4   6
ATOM      6  O   UNL     1      44.730 -37.153  -4.739  0.00  0.00    -0.467 OA
ATOM      7  C   UNL     1      43.647 -38.023  -4.513  0.00  0.00    +0.280 C 
ENDBRANCH   4   6
ENDBRANCH   3   4
BRANCH   3   8
ATOM      8  C   UNL     1      46.710 -36.766  -6.348  0.00  0.00    +0.090 C 
BRANCH   8   9
ATOM      9  C   UNL     1      47.386 -36.817  -7.688  0.00  0.00    +0.061 A 
ATOM     10  N   UNL     1      47.256 -35.887  -8.539  0.00  0.00    -0.241 NA
ATOM     11  C   UNL     1      47.947 -36.255  -9.531  0.00  0.00    +0.196 A 
ATOM     12  N   UNL     1      48.506 -37.376  -9.338  0.00  0.00    -0.351 N 
ATOM     13  H   UNL     1      49.124 -37.881 -10.013  0.00  0.00    +0.166 HD
ATOM     14  C   UNL     1      48.183 -37.775  -8.181  0.00  0.00    +0.107 A 
ENDBRANCH   8   9
ENDBRANCH   3   8
TORSDOF 5
ENDMDL
MODEL 7
REMARK VINA RESULT:      -4.4      8.118     10.347
REMARK  Name = C:\Users\Asus\OneDrive\Рабочий стол\dz3\ligands\Lig5.pdb
REMARK  7 active torsions:
REMARK  status: ('A' for Active; 'I' for Inactive)
REMARK    1  A    between atoms: _1  and  _10
REMARK    2  A    between atoms: _4  and  _11
REMARK    3  A    between atoms: _4  and  _17
REMARK    4  A    between atoms: _5  and  _8
REMARK    5  A    between atoms: _8  and  _10
REMARK    6  A    between atoms: _10  and  _11
REMARK    7  A    between atoms: _23  and  _27
REMARK                            x       y       z     vdW  Elec       q    Type
REMARK                         _______ _______ _______ _____ _____    ______ ____
ROOT
ATOM      3  C   UNL     1      35.141 -54.629   6.420  0.00  0.00    +0.188 C 
ENDROOT
BRANCH   3   1
ATOM      1  N   UNL     1      34.349 -55.081   7.574  0.00  0.00    -0.302 N 
ATOM      2  H   UNL     1      34.021 -54.381   8.237  0.00  0.00    +0.150 HD
ATOM     15  C   UNL     1      34.074 -56.399   7.812  0.00  0.00    +0.211 C 
ATOM     16  O   UNL     1      34.474 -57.283   7.098  0.00  0.00    -0.276 OA
ATOM     17  C   UNL     1      33.232 -56.637   9.049  0.00  0.00    +0.109 C 
ENDBRANCH   3   1
BRANCH   3   4
ATOM      4  C   UNL     1      36.382 -53.832   6.825  0.00  0.00    +0.328 C 
ATOM      5  O   UNL     1      37.489 -54.315   6.918  0.00  0.00    -0.249 OA
BRANCH   4   6
ATOM      6  O   UNL     1      36.074 -52.520   7.027  0.00  0.00    -0.467 OA
ATOM      7  C   UNL     1      36.937 -51.566   6.457  0.00  0.00    +0.280 C 
ENDBRANCH   4   6
ENDBRANCH   3   4
BRANCH   3   8
ATOM      8  C   UNL     1      34.249 -53.793   5.484  0.00  0.00    +0.090 C 
BRANCH   8   9
ATOM      9  C   UNL     1      33.864 -54.575   4.262  0.00  0.00    +0.061 A 
ATOM     10  N   UNL     1      34.194 -55.789   4.112  0.00  0.00    -0.241 NA
ATOM     11  C   UNL     1      33.713 -56.122   2.991  0.00  0.00    +0.196 A 
ATOM     12  N   UNL     1      33.094 -55.168   2.432  0.00  0.00    -0.351 N 
ATOM     13  H   UNL     1      32.616 -55.204   1.504  0.00  0.00    +0.166 HD
ATOM     14  C   UNL     1      33.159 -54.162   3.199  0.00  0.00    +0.107 A 
ENDBRANCH   8   9
ENDBRANCH   3   8
TORSDOF 5
ENDMDL
MODEL 8
REMARK VINA RESULT:      -4.4     14.775     17.246
REMARK  Name = C:\Users\Asus\OneDrive\Рабочий стол\dz3\ligands\Lig5.pdb
REMARK  7 active torsions:
REMARK  status: ('A' for Active; 'I' for Inactive)
REMARK    1  A    between atoms: _1  and  _10
REMARK    2  A    between atoms: _4  and  _11
REMARK    3  A    between atoms: _4  and  _17
REMARK    4  A    between atoms: _5  and  _8
REMARK    5  A    between atoms: _8  and  _10
REMARK    6  A    between atoms: _10  and  _11
REMARK    7  A    between atoms: _23  and  _27
REMARK                            x       y       z     vdW  Elec       q    Type
REMARK                         _______ _______ _______ _____ _____    ______ ____
ROOT
ATOM      3  C   UNL     1      46.675 -37.072  -6.768  0.00  0.00    +0.188 C 
ENDROOT
BRANCH   3   1
ATOM      1  N   UNL     1      46.726 -35.750  -6.126  0.00  0.00    -0.302 N 
ATOM      2  H   UNL     1      47.366 -35.619  -5.344  0.00  0.00    +0.150 HD
ATOM     15  C   UNL     1      45.924 -34.710  -6.507  0.00  0.00    +0.211 C 
ATOM     16  O   UNL     1      45.109 -34.810  -7.388  0.00  0.00    -0.276 OA
ATOM     17  C   UNL     1      46.153 -33.436  -5.719  0.00  0.00    +0.109 C 
ENDBRANCH   3   1
BRANCH   3   4
ATOM      4  C   UNL     1      46.492 -38.214  -5.768  0.00  0.00    +0.328 C 
ATOM      5  O   UNL     1      46.262 -38.044  -4.591  0.00  0.00    -0.249 OA
BRANCH   4   6
ATOM      6  O   UNL     1      46.589 -39.424  -6.387  0.00  0.00    -0.467 OA
ATOM      7  C   UNL     1      45.403 -39.967  -6.916  0.00  0.00    +0.280 C 
ENDBRANCH   4   6
ENDBRANCH   3   4
BRANCH   3   8
ATOM      8  C   UNL     1      47.954 -37.286  -7.599  0.00  0.00    +0.090 C 
BRANCH   8   9
ATOM      9  C   UNL     1      47.778 -36.788  -9.004  0.00  0.00    +0.061 A 
ATOM     10  N   UNL     1      48.655 -36.074  -9.576  0.00  0.00    -0.241 NA
ATOM     11  C   UNL     1      48.186 -35.840 -10.726  0.00  0.00    +0.196 A 
ATOM     12  N   UNL     1      47.052 -36.379 -10.900  0.00  0.00    -0.351 N 
ATOM     13  H   UNL     1      46.470 -36.325 -11.767  0.00  0.00    +0.166 HD
ATOM     14  C   UNL     1      46.748 -36.994  -9.836  0.00  0.00    +0.107 A 
ENDBRANCH   8   9
ENDBRANCH   3   8
TORSDOF 5
ENDMDL
MODEL 9
REMARK VINA RESULT:      -4.4      8.647     10.502
REMARK  Name = C:\Users\Asus\OneDrive\Рабочий стол\dz3\ligands\Lig5.pdb
REMARK  7 active torsions:
REMARK  status: ('A' for Active; 'I' for Inactive)
REMARK    1  A    between atoms: _1  and  _10
REMARK    2  A    between atoms: _4  and  _11
REMARK    3  A    between atoms: _4  and  _17
REMARK    4  A    between atoms: _5  and  _8
REMARK    5  A    between atoms: _8  and  _10
REMARK    6  A    between atoms: _10  and  _11
REMARK    7  A    between atoms: _23  and  _27
REMARK                            x       y       z     vdW  Elec       q    Type
REMARK                         _______ _______ _______ _____ _____    ______ ____
ROOT
ATOM      3  C   UNL     1      33.923 -54.123   4.621  0.00  0.00    +0.188 C 
ENDROOT
BRANCH   3   1
ATOM      1  N   UNL     1      34.421 -55.309   5.333  0.00  0.00    -0.302 N 
ATOM      2  H   UNL     1      35.381 -55.606   5.161  0.00  0.00    +0.150 HD
ATOM     15  C   UNL     1      33.641 -56.049   6.177  0.00  0.00    +0.211 C 
ATOM     16  O   UNL     1      32.484 -55.786   6.386  0.00  0.00    -0.276 OA
ATOM     17  C   UNL     1      34.361 -57.220   6.814  0.00  0.00    +0.109 C 
ENDBRANCH   3   1
BRANCH   3   4
ATOM      4  C   UNL     1      33.338 -54.455   3.247  0.00  0.00    +0.328 C 
ATOM      5  O   UNL     1      33.593 -55.469   2.637  0.00  0.00    -0.249 OA
BRANCH   4   6
ATOM      6  O   UNL     1      32.481 -53.480   2.835  0.00  0.00    -0.467 OA
ATOM      7  C   UNL     1      31.391 -53.190   3.677  0.00  0.00    +0.280 C 
ENDBRANCH   4   6
ENDBRANCH   3   4
BRANCH   3   8
ATOM      8  C   UNL     1      35.059 -53.093   4.486  0.00  0.00    +0.090 C 
BRANCH   8   9
ATOM      9  C   UNL     1      35.792 -52.921   5.784  0.00  0.00    +0.061 A 
ATOM     10  N   UNL     1      36.773 -53.657   6.102  0.00  0.00    -0.241 NA
ATOM     11  C   UNL     1      37.139 -53.241   7.238  0.00  0.00    +0.196 A 
ATOM     12  N   UNL     1      36.430 -52.274   7.646  0.00  0.00    -0.351 N 
ATOM     13  H   UNL     1      36.542 -51.767   8.553  0.00  0.00    +0.166 HD
ATOM     14  C   UNL     1      35.560 -52.030   6.759  0.00  0.00    +0.107 A 
ENDBRANCH   8   9
ENDBRANCH   3   8
TORSDOF 5
ENDMDL
